<?xml version="1.0" encoding="UTF-8"?>

<!-- generated on Sun Feb 15 13:39:15 2015 by SUMO duarouter Version 0.22.0
<?xml version="1.0" encoding="UTF-8"?>

<configuration xmlns:xsi="http://www.w3.org/2001/XMLSchema-instance" xsi:noNamespaceSchemaLocation="http://sumo.dlr.de/xsd/duarouterConfiguration.xsd">

    <input>
        <net-file value="/home/hendrik/CEC/ITSCmap/trafficmodeler/gen1/erlangen.net.xml"/>
        <trip-files value="/home/hendrik/CEC/ITSCmap/trafficmodeler/gen1/sim.generated-trips.xml"/>
    </input>

    <output>
        <output-file value="/home/hendrik/CEC/ITSCmap/trafficmodeler/gen1/erlangen.rou.xml"/>
    </output>

    <processing>
        <ignore-errors value="true"/>
        <repair value="true"/>
    </processing>

    <defaults>
        <departlane value="best"/>
        <departpos value="random_free"/>
        <departspeed value="max"/>
    </defaults>

    <time>
        <begin value="0"/>
        <end value="540"/>
    </time>

    <random_number>
        <seed value="1000"/>
    </random_number>

</configuration>
-->

<routes xmlns:xsi="http://www.w3.org/2001/XMLSchema-instance" xsi:noNamespaceSchemaLocation="http://sumo.dlr.de/xsd/routes_file.xsd">
    <vType id="Default" length="5.00" maxSpeed="70.00">
        <carFollowing-Krauss accel="2.60" decel="4.50" sigma="0.50"/>
    </vType>
    <vehicle id="Area Flow 10-14" type="Default" depart="0.00" departLane="best" departPos="random_free" departSpeed="max" color="146,237,222">
        <route edges="4099309 4900739#1 4900739#2 4900741 35842306#0 35842306#1 4047446#0 4047446#1 25472079 30405352 30350445 -33174302#1 -33174302#0 -32270595 -29900561#1 -29900561#0 -4006688#4 -4006688#3 -4006688#2 -4006688#1 -4006688#0 -31401017#0 -29900567 -31401018"/>
    </vehicle>
    <vehicle id="Area Flow 10-6" type="Default" depart="0.00" departLane="best" departPos="random_free" departSpeed="max" color="146,237,222">
        <route edges="-94344940#2 -94344940#0 28768072 -28613737 -4006702#0 4319352#1 44069041#0 44069041#1 25472079 30405352 30350445 -33174302#1 -33174302#0 -32302591#5"/>
    </vehicle>
    <vehicle id="Area Flow 10-74" type="Default" depart="1.00" departLane="best" departPos="random_free" departSpeed="max" color="146,237,222">
        <route edges="-4900739#1 4900739#1 4900739#2 4900741 35842306#0 35842306#1 4047446#0 4047446#1 25472079 30405352 30350445 -33174302#1 -33174302#0 -32270595"/>
    </vehicle>
    <vehicle id="Area Flow 22-48" type="Default" depart="1.00" departLane="best" departPos="random_free" departSpeed="max" color="36,149,171">
        <route edges="32320329 -32320329 -113939241 113939244#0 113939244#1 113939244#2 -126606716 23339459 30405358#1 85355912 85355911#0 85355911#1 30405356 5931612 30350450#0 30350450#1 30350450#2"/>
    </vehicle>
    <vehicle id="Area Flow 9-111" type="Default" depart="2.00" departLane="best" departPos="random_free" departSpeed="max" color="192,175,243">
        <route edges="94344940#0 -94344940#0 28768072 -28613737 -4006702#0 4319352#1"/>
    </vehicle>
    <vehicle id="Area Flow 9-44" type="Default" depart="3.00" departLane="best" departPos="random_free" departSpeed="max" color="192,175,243">
        <route edges="94344940#2 -94344940#2 -94344940#0 28768072 -28613737 -4006702#0 -3013106#2 -3013106#1 -3013106#0 -3998612#2 3998643#0"/>
    </vehicle>
    <vehicle id="Area Flow 10-28" type="Default" depart="4.00" departLane="best" departPos="random_free" departSpeed="max" color="146,237,222">
        <route edges="85355912 85355911#0 25472101 30405352 30350445 -33174302#1 -33174302#0 -32270595 -29900561#1 -29900561#0 -4006688#4"/>
    </vehicle>
    <vehicle id="Area Flow 10-21" type="Default" depart="5.00" departLane="best" departPos="random_free" departSpeed="max" color="146,237,222">
        <route edges="35842306#1 4047446#0 4047446#1 25472079 30405352 30350445 -33174302#1 -33174302#0 -32270595 -29900561#1 -29900561#0 -4006688#4 -4006688#3 -4006688#2 -4006688#1 -4006688#0 -31401017#0 -29900567 -31401018 31401018"/>
    </vehicle>
    <vehicle id="Area Flow 22-58" type="Default" depart="6.00" departLane="best" departPos="random_free" departSpeed="max" color="36,149,171">
        <route edges="37591481 -113939241 113939244#0 113939244#1 113939244#2 -126606716 23339459 30405358#1 85355912 85355911#0 25472101 30405352 19796637 122161390 -30357194 3998612#0 -4006725#1 -4872369 -4006724#1 -4047378 10573414#1"/>
    </vehicle>
    <vehicle id="Area Flow 22-46" type="Default" depart="7.00" departLane="best" departPos="random_free" departSpeed="max" color="36,149,171">
        <route edges="-113939241 113939244#0 113939244#1 113939244#2 -126606716 23339459 30405358#1 85355912 85355911#0 25472101 30405352 19796637 122161390 -30357194 3998612#0 -4006725#1 -4872369 -4006724#1 -4006724#0"/>
    </vehicle>
    <vehicle id="Area Flow 22-1" type="Default" depart="9.00" departLane="best" departPos="random_free" departSpeed="max" color="36,149,171">
        <route edges="32320329 -32320329 -113939241 113939244#0 113939244#1 113939244#2 -126606716 23339459 30405358#1 85355912 85355911#0 85355911#1 30405356 5931612 30350450#0 30350450#1 30350450#2 4006702#0 31255203#0"/>
    </vehicle>
    <vehicle id="Area Flow 10-72" type="Default" depart="10.00" departLane="best" departPos="random_free" departSpeed="max" color="146,237,222">
        <route edges="30751813 4047446#0 4047446#1 25472079 30405352 30350445 -33174302#1 -33174302#0 -32270595 -29900561#1 -29900561#0 -8403001 -4006674#4 -4006674#3 -4006674#2"/>
    </vehicle>
    <vehicle id="Area Flow 10-96" type="Default" depart="10.00" departLane="best" departPos="random_free" departSpeed="max" color="146,237,222">
        <route edges="4900739#2 4900741 35842306#0 35842306#1 4047446#0 4047446#1 25472079 30405352 30350445 -33174302#1 -33174302#0 -32270595 8402997 8402998#1 8402998#2 29900564#1"/>
    </vehicle>
    <vehicle id="Area Flow 22-20" type="Default" depart="10.00" departLane="best" departPos="random_free" departSpeed="max" color="36,149,171">
        <route edges="32320329 -32320329 -113939241 113939244#0 113939244#1 113939244#2 -126606716 23339459 30405358#1 85355912 85355911#0 85355911#1 30405356 5931612 30350450#0 30350450#1 30350450#2 4319353"/>
    </vehicle>
    <vehicle id="Area Flow 8-5" type="Default" depart="10.00" departLane="best" departPos="random_free" departSpeed="max" color="244,155,120">
        <route edges="4900043 4900041#1 4900041#2 4900041#3 4900041#0 -4900043 -4006702#1 -4006702#0 4319352#1 44069041#0 44069041#1 25472079 30405352 30350445 -33174302#1 -33174302#0 -32270595 -29900561#1 -29900561#0 -8403001 -4006674#4 -4006674#3 -4006674#2 -4006674#1 -4006674#0"/>
    </vehicle>
    <vehicle id="Area Flow 10-137" type="Default" depart="11.00" departLane="best" departPos="random_free" departSpeed="max" color="146,237,222">
        <route edges="-35842306#0 35842306#0 35842306#1 4047446#0 4047446#1 25472079 30405352 30350445 31353573#0"/>
    </vehicle>
    <vehicle id="Area Flow 22-13" type="Default" depart="13.00" departLane="best" departPos="random_free" departSpeed="max" color="36,149,171">
        <route edges="32320329 -32320329 -113939241 113939244#0 113939244#1 113939244#2 -126606716 23339459 30405358#1 85355912 85355911#0 85355911#1 30405356 5931612 30350450#0 30350450#1 30350450#2"/>
    </vehicle>
    <vehicle id="Area Flow 8-7" type="Default" depart="13.00" departLane="best" departPos="random_free" departSpeed="max" color="244,155,120">
        <route edges="-31241851#2 31241851#2 -31255203#0 -4006702#0 4319352#1 44069041#0 44069041#1 25472079 30405352 30350445 -33174302#1 -33174302#0 -32270595 -29900561#1 -29900561#0 -4006688#4 -4006688#3 -4006688#2 -4006688#1 -4006688#0 4006688#0"/>
    </vehicle>
    <vehicle id="Area Flow 10-132" type="Default" depart="14.00" departLane="best" departPos="random_free" departSpeed="max" color="146,237,222">
        <route edges="30405358#1 85355912 85355911#0 25472101 30405352 30350445 -33174302#1 -33174302#0 -32270595 8402997 8402998#1 8402998#2 29900564#1 8403007 23605595 4006693#1 4006693#2"/>
    </vehicle>
    <vehicle id="Area Flow 9-74" type="Default" depart="14.00" departLane="best" departPos="random_free" departSpeed="max" color="192,175,243">
        <route edges="-28613727#1 28613727#1 -94344940#0 28768072 -28613737 -4006702#0 -3013106#2 -3013106#1 -3013106#0 -3998612#2 -3998612#1 -3998612#0 3998612#0"/>
    </vehicle>
    <vehicle id="Area Flow 13-33" type="Default" depart="15.00" departLane="best" departPos="random_free" departSpeed="max" color="56,45,103">
        <route edges="30405358#0 30405358#1 85355912 85355911#0 85355911#1 30405356 5931612 30350450#0 30350450#1 30350450#2 -3013106#2 -3013106#1 -3013107"/>
    </vehicle>
    <vehicle id="Area Flow 13-56" type="Default" depart="15.00" departLane="best" departPos="random_free" departSpeed="max" color="56,45,103">
        <route edges="-15259223 15259223 4006668 23339459 30405358#1 85355912 85355911#0 25472101 30405352 19796637 122161390 -30357194 3998612#0 -4006725#1 -4872369 4006724#2"/>
    </vehicle>
    <vehicle id="Area Flow 22-2" type="Default" depart="16.00" departLane="best" departPos="random_free" departSpeed="max" color="36,149,171">
        <route edges="-32320329 -113939241 113939244#0 113939244#1 113939244#2 -126606716 23339459 30405358#1 85355912 85355911#0 25472101 30405352 19796637 122161390 -30357194 3998612#0 -4006725#1 -4872369 -4006724#1"/>
    </vehicle>
    <vehicle id="Area Flow 10-122" type="Default" depart="17.00" departLane="best" departPos="random_free" departSpeed="max" color="146,237,222">
        <route edges="85355912 85355911#0 25472101 30405352 30350445 -33174302#1 -33174302#0 -32302591#5 -32302591#4 4006676 -4006676"/>
    </vehicle>
    <vehicle id="Area Flow 9-2" type="Default" depart="17.00" departLane="best" departPos="random_free" departSpeed="max" color="192,175,243">
        <route edges="4900043 4900041#1 4900041#2 4900041#3 4900041#0 -4900043 -4006702#1 -4006702#0 -3013106#2 -3013106#1 -3013106#0 -3998612#2 3998612#2"/>
    </vehicle>
    <vehicle id="Area Flow 10-136" type="Default" depart="18.00" departLane="best" departPos="random_free" departSpeed="max" color="146,237,222">
        <route edges="-54105725 54105725 -94344940#2 -94344940#0 28768072 -28613737 -4006702#0 4319352#1 44069041#0 44069041#1 25472079 30405352 30350445 -33174302#1 -33174302#0 -32270595 -29900561#1 -29900561#0 -8403001 -4006674#4 -23605600#0"/>
    </vehicle>
    <vehicle id="Area Flow 13-121" type="Default" depart="18.00" departLane="best" departPos="random_free" departSpeed="max" color="56,45,103">
        <route edges="30405358#0 30405358#1 85355912 85355911#0 85355911#1 30405356 5931612 30350450#0 30350450#1 30350450#2 4006702#0 4006702#1 4006702#2"/>
    </vehicle>
    <vehicle id="Area Flow 22-108" type="Default" depart="19.00" departLane="best" departPos="random_free" departSpeed="max" color="36,149,171">
        <route edges="-32320329 -113939241 113939244#0 113939244#1 113939244#2 -126606716 23339459 30405358#1 85355912 85355911#0 25472101 30405352 19796637 122161390 -30357194 3998612#0 -4006725#1 -4872369 -4006724#1"/>
    </vehicle>
    <vehicle id="Area Flow 13-145" type="Default" depart="20.00" departLane="best" departPos="random_free" departSpeed="max" color="56,45,103">
        <route edges="30405358#0 30405358#1 85355912 85355911#0 25472101 30405352 19796637 122161390 -30357194 3998612#0 3998612#1"/>
    </vehicle>
    <vehicle id="Area Flow 13-51" type="Default" depart="20.00" departLane="best" departPos="random_free" departSpeed="max" color="56,45,103">
        <route edges="30405358#0 30405358#1 85355912 85355911#0 25472101 30405352 19796637 122161390 -30357194 3998612#0 -4006725#1 -4872369 -4006724#1 -4006724#0 4006724#0"/>
    </vehicle>
    <vehicle id="Area Flow 22-97" type="Default" depart="20.00" departLane="best" departPos="random_free" departSpeed="max" color="36,149,171">
        <route edges="-37591481 37591481 -113939241 113939244#0 113939244#1 113939244#2 -126606716 23339459 30405358#1 85355912 85355911#0 25472101 30405352 19796637 122161390 -30357194 3998612#0 -4006725#1 -4872369 -4006724#1"/>
    </vehicle>
    <vehicle id="Area Flow 8-20" type="Default" depart="20.00" departLane="best" departPos="random_free" departSpeed="max" color="244,155,120">
        <route edges="-31241838#1 -31241838#0 -31255203#1 -31255203#0 -4006702#0 4319352#1 44069041#0 44069041#1 25472079 30405352 30350445 -33174302#1 -33174302#0 -32302591#5 -32302591#4 -32302591#3 -32302591#2 -32302591#1 -32302591#0 4006672"/>
    </vehicle>
    <vehicle id="Area Flow 10-22" type="Default" depart="21.00" departLane="best" departPos="random_free" departSpeed="max" color="146,237,222">
        <route edges="-29900565#0 -29900564#5 -29900564#4 -29900564#3 -29900564#2 -29900564#1 -29900564#0 29900564#0"/>
    </vehicle>
    <vehicle id="Area Flow 8-24" type="Default" depart="21.00" departLane="best" departPos="random_free" departSpeed="max" color="244,155,120">
        <route edges="31241838#1 31241816#1 31241851#0 31241851#1 31241851#2 -31255203#0 -4006702#0 4319352#1 44069041#0 44069041#1 25472079 30405352 30350445 -33174302#1 -33174302#0 -32302591#5 -32302591#4 -32302591#3 -4006684"/>
    </vehicle>
    <vehicle id="Area Flow 9-41" type="Default" depart="21.00" departLane="best" departPos="random_free" departSpeed="max" color="192,175,243">
        <route edges="4006705#2 -4006705#2 -4006705#1 4006703#1 28269598 -4006702#2 -4006702#1 -4006702#0 -3013106#2 -3013106#1 -3013106#0 -3998612#2 -3998612#1"/>
    </vehicle>
    <vehicle id="Area Flow 9-88" type="Default" depart="21.00" departLane="best" departPos="random_free" departSpeed="max" color="192,175,243">
        <route edges="-28269598 28269598 -4006702#2 -4006702#1 -4006702#0 -3013106#2 3998615#0 3998615#1 3998615#2 3998615#3 3998645#2"/>
    </vehicle>
    <vehicle id="Area Flow 8-86" type="Default" depart="22.00" departLane="best" departPos="random_free" departSpeed="max" color="244,155,120">
        <route edges="-31241834#0 -31241835#1 -31241816#3 31241851#0 31241851#1 31241851#2 -31255203#0 -4006702#0 4319352#1 44069041#0 44069041#1 4400949 31982182#0 4047241 4797872 4797871 4006668 126606716 113939242#0 113939242#1 113939242#2 113939241 -37591481 -28269601 -4392769"/>
    </vehicle>
    <vehicle id="Area Flow 10-55" type="Default" depart="23.00" departLane="best" departPos="random_free" departSpeed="max" color="146,237,222">
        <route edges="30751813 4047446#0 4047446#1 25472079 30405352 30350445 -33174302#1 4006689"/>
    </vehicle>
    <vehicle id="Area Flow 22-110" type="Default" depart="26.00" departLane="best" departPos="random_free" departSpeed="max" color="36,149,171">
        <route edges="-32320329 -113939241 113939244#0 113939244#1 113939244#2 -126606716 23339459 30405358#1 85355912 85355911#0 25472101 30405352 19796637 122161390 -30357194 3998612#0 -4006725#1 -4872369 -4006724#1 -4047378 4047378"/>
    </vehicle>
    <vehicle id="Area Flow 22-51" type="Default" depart="26.00" departLane="best" departPos="random_free" departSpeed="max" color="36,149,171">
        <route edges="113939241 -113939241 113939244#0 113939244#1 113939244#2 -126606716 23339459 30405358#1 85355912 85355911#0 85355911#1 30405356 5931612 30350450#0 30350450#1 -3998643#2 3998643#2"/>
    </vehicle>
    <vehicle id="Area Flow 9-19" type="Default" depart="27.00" departLane="best" departPos="random_free" departSpeed="max" color="192,175,243">
        <route edges="25210699 -4006705#1 4006703#1 28269598 -4006702#2 -4006702#1 31255203#0 -31241851#2 -31241853#2 31241853#2"/>
    </vehicle>
    <vehicle id="Area Flow 22-8" type="Default" depart="29.00" departLane="best" departPos="random_free" departSpeed="max" color="36,149,171">
        <route edges="113939241 -113939241 113939244#0 113939244#1 113939244#2 -126606716 23339459 30405358#1 85355912 85355911#0 85355911#1 30405356 5931612 30350450#0 30350450#1 30350450#2 -3013106#2 3998615#0"/>
    </vehicle>
    <vehicle id="Area Flow 9-10" type="Default" depart="29.00" departLane="best" departPos="random_free" departSpeed="max" color="192,175,243">
        <route edges="-28269598 28269598 -4006702#2 -4006702#1 -4006702#0 4319352#1 44069041#0 44069041#1 25472079 30405352 19796637 122161390 -30357194"/>
    </vehicle>
    <vehicle id="Area Flow 9-83" type="Default" depart="29.00" departLane="best" departPos="random_free" departSpeed="max" color="192,175,243">
        <route edges="-32611578 32611578 23805514#1 -4006702#2 -4006702#1 -4006702#0 -3013106#2 -3013106#1 -3013106#0 -3998612#2 -3998612#1 -3998612#0"/>
    </vehicle>
    <vehicle id="Area Flow 8-117" type="Default" depart="30.00" departLane="best" departPos="random_free" departSpeed="max" color="244,155,120">
        <route edges="-31241855#1 31241816#0 31241816#1 31241851#0 31241851#1 31241851#2 -31255203#0 -4006702#0 4319352#1 44069041#0 44069041#1 25472079 30405352 30350445 -33174302#1 -33174302#0 -32270595 -29900561#1 -29900561#0 -4006688#4 -4006688#3 -4006688#2 -4006688#1 -4006688#0 -31401017#0 -29900567 -31401018 -4047532"/>
    </vehicle>
    <vehicle id="Area Flow 22-61" type="Default" depart="31.00" departLane="best" departPos="random_free" departSpeed="max" color="36,149,171">
        <route edges="-37591481 37591481 -113939241 113939244#0 113939244#1 113939244#2 -126606716 23339459 30405358#1 85355912 85355911#0 25472101 30405352 19796637 122161390 -30357194 3998612#0 -4006725#1 -4872369 -4006724#1 -4006724#0 4006724#0"/>
    </vehicle>
    <vehicle id="Area Flow 13-40" type="Default" depart="32.00" departLane="best" departPos="random_free" departSpeed="max" color="56,45,103">
        <route edges="15259223 4006668 23339459 30405358#1 85355912 85355911#0 85355911#1 30405356 5931612 30350450#0 -3998645#2 -3998615#3 -4099270#0"/>
    </vehicle>
    <vehicle id="Area Flow 13-27" type="Default" depart="35.00" departLane="best" departPos="random_free" departSpeed="max" color="56,45,103">
        <route edges="15259223 4006668 23339459 30405358#1 85355912 85355911#0 25472101 30405352 19796637 122161390 -30357194 3998613#0 -3998613#0"/>
    </vehicle>
    <vehicle id="Area Flow 8-50" type="Default" depart="38.00" departLane="best" departPos="random_free" departSpeed="max" color="244,155,120">
        <route edges="31241835#1 -31241835#1 -31241816#3 31241851#0 31241851#1 31241851#2 -31255203#0 -4006702#0 4319352#1 44069041#0 44069041#1 25472079 30405352 30350445 -33174302#1 -33174302#0 -32302591#5 -32302591#4 -32302591#3 -32302591#2 32302591#2"/>
    </vehicle>
    <vehicle id="Area Flow 10-145" type="Default" depart="39.00" departLane="best" departPos="random_free" departSpeed="max" color="146,237,222">
        <route edges="-4900741 4900741 35842306#0 35842306#1 4047446#0 4047446#1 25472079 30405352 30350445 -33174302#1 -33174302#0 -32302591#5 -32302591#4"/>
    </vehicle>
    <vehicle id="Area Flow 10-2" type="Default" depart="39.00" departLane="best" departPos="random_free" departSpeed="max" color="146,237,222">
        <route edges="-28631632 28613727#1 -94344940#0 28768072 -28613737 -4006702#0 4319352#1 44069041#0 44069041#1 25472079 30405352 30350445 -33174302#1 -33174302#0 -29900565#3 -29900565#2"/>
    </vehicle>
    <vehicle id="Area Flow 8-132" type="Default" depart="40.00" departLane="best" departPos="random_free" departSpeed="max" color="244,155,120">
        <route edges="-31241851#1 31241851#1 31241851#2 -31255203#0 -4006702#0 4319352#1 44069041#0 44069041#1 25472079 30405352 30350445 31353573#0 31353573#1"/>
    </vehicle>
    <vehicle id="Area Flow 13-8" type="Default" depart="41.00" departLane="best" departPos="random_free" departSpeed="max" color="56,45,103">
        <route edges="15259223 4006668 23339459 30405358#1 85355912 85355911#0 85355911#1 30405356 5931612 30350450#0 30350450#1 30350450#2 4006702#0 4006702#1 4006702#2 -28269598"/>
    </vehicle>
    <vehicle id="Area Flow 8-118" type="Default" depart="41.00" departLane="best" departPos="random_free" departSpeed="max" color="244,155,120">
        <route edges="-31241851#1 31241851#1 31241851#2 -31255203#0 -4006702#0 4319352#1 44069041#0 44069041#1 25472079 30405352 30350445 -33174302#1 -33174302#0 -32270595 -29900561#1 -29900561#0 -8403001 -4006674#4 -4006674#3 -4006674#2 -4006674#1 -4006674#0"/>
    </vehicle>
    <vehicle id="Area Flow 13-142" type="Default" depart="42.00" departLane="best" departPos="random_free" departSpeed="max" color="56,45,103">
        <route edges="30405358#0 30405358#1 85355912 85355911#0 85355911#1 30405356 5931612 30350450#0 30350450#1 30350450#2 -3013106#2 -3013106#1 -3013107 3013107"/>
    </vehicle>
    <vehicle id="Area Flow 22-80" type="Default" depart="44.00" departLane="best" departPos="random_free" departSpeed="max" color="36,149,171">
        <route edges="37591481 -113939241 113939244#0 113939244#1 113939244#2 -126606716 23339459 30405358#1 85355912 85355911#0 85355911#1 30405356 5931612 30350450#0 30350450#1 30350450#2 -3013106#2 -3013106#1 -3013107 -3013109"/>
    </vehicle>
    <vehicle id="Area Flow 22-23" type="Default" depart="45.00" departLane="best" departPos="random_free" departSpeed="max" color="36,149,171">
        <route edges="-37591481 37591481 -113939241 113939244#0 113939244#1 113939244#2 -126606716 23339459 30405358#1 85355912 85355911#0 85355911#1 30405356 5931612 30350450#0 30350450#1 30350450#2 4319352#1"/>
    </vehicle>
    <vehicle id="Area Flow 22-77" type="Default" depart="45.00" departLane="best" departPos="random_free" departSpeed="max" color="36,149,171">
        <route edges="-32320329 -113939241 113939244#0 113939244#1 113939244#2 -126606716 23339459 30405358#1 85355912 85355911#0 85355911#1 30405356 5931612 30350450#0 30350450#1 30350450#2 -3013106#2 -3013106#1 -3013106#0 -3998612#2"/>
    </vehicle>
    <vehicle id="Area Flow 22-56" type="Default" depart="46.00" departLane="best" departPos="random_free" departSpeed="max" color="36,149,171">
        <route edges="-37591481 37591481 -113939241 113939244#0 113939244#1 113939244#2 -126606716 23339459 30405358#1 85355912 85355911#0 25472101 30405352 19796637 122161390 -30357194 3998612#0 3998612#1 3998612#2"/>
    </vehicle>
    <vehicle id="Area Flow 10-81" type="Default" depart="47.00" departLane="best" departPos="random_free" departSpeed="max" color="146,237,222">
        <route edges="94344940#2 -94344940#2 -94344940#0 28768072 -28613737 -4006702#0 4319352#1 44069041#0 44069041#1 25472079 30405352 30350445 -33174302#1 4006689"/>
    </vehicle>
    <vehicle id="Area Flow 22-79" type="Default" depart="47.00" departLane="best" departPos="random_free" departSpeed="max" color="36,149,171">
        <route edges="-37591481 37591481 -113939241 113939244#0 113939244#1 113939244#2 -126606716 23339459 30405358#1 85355912 85355911#0 25472101 30405352 19796637 122161390 -30357194 3998612#0 -4006725#1 -4872369 -4006724#1 -4006724#0"/>
    </vehicle>
    <vehicle id="Area Flow 9-125" type="Default" depart="47.00" departLane="best" departPos="random_free" departSpeed="max" color="192,175,243">
        <route edges="31720632#1 -31720632#1 -31720632#0 -4006705#2 -4006705#1 4006703#1 28269598 -4006702#2 -4006702#1 31255203#0 31255203#1"/>
    </vehicle>
    <vehicle id="Area Flow 10-143" type="Default" depart="49.00" departLane="best" departPos="random_free" departSpeed="max" color="146,237,222">
        <route edges="-35842306#0 35842306#0 35842306#1 4047446#0 4047446#1 5931612 30350450#0"/>
    </vehicle>
    <vehicle id="Area Flow 22-78" type="Default" depart="49.00" departLane="best" departPos="random_free" departSpeed="max" color="36,149,171">
        <route edges="113939241 -113939241 113939244#0 113939244#1 113939244#2 -126606716 23339459 30405358#1 85355912 85355911#0 85355911#1 30405356 5931612 30350450#0 -3998645#2 -3998645#1 -4006726#2 -4006726#1 -4006726#0"/>
    </vehicle>
    <vehicle id="Area Flow 8-0" type="Default" depart="50.00" departLane="best" departPos="random_free" departSpeed="max" color="244,155,120">
        <route edges="-31241848 31241848 31241851#0 31241851#1 31241851#2 -31255203#0 -4006702#0 4319352#1 44069041#0 44069041#1 25472079 30405352 30350445 -33174302#1 -33174302#0 -32270595 -29900561#1 -29900561#0 -8403001 -4006674#4 -4006674#3 -4006674#2 -4006674#1 -4006674#0 32270593 -32270593"/>
    </vehicle>
    <vehicle id="Area Flow 10-149" type="Default" depart="51.00" departLane="best" departPos="random_free" departSpeed="max" color="146,237,222">
        <route edges="-4900739#2 4900739#2 4900741 35842306#0 35842306#1 4047446#0 4047446#1 25472079 30405352 30350445 -33174302#1 -33174302#0 -32270595 -29900561#1 -29900561#0 -8403001 4006687"/>
    </vehicle>
    <vehicle id="Area Flow 13-47" type="Default" depart="51.00" departLane="best" departPos="random_free" departSpeed="max" color="56,45,103">
        <route edges="-15259223 15259223 4006668 23339459 30405358#1 85355912 85355911#0 85355911#1 30405356 5931612 30350450#0 -3998645#2 -3998645#1 -4006726#2 -4006726#1 4006726#1"/>
    </vehicle>
    <vehicle id="Area Flow 13-50" type="Default" depart="51.00" departLane="best" departPos="random_free" departSpeed="max" color="56,45,103">
        <route edges="-15259223 15259223 4006668 23339459 30405358#1 85355912 85355911#0 25472101 30405352 19796637 122161390 -30357194 3998612#0 3998645#0"/>
    </vehicle>
    <vehicle id="Area Flow 22-33" type="Default" depart="51.00" departLane="best" departPos="random_free" departSpeed="max" color="36,149,171">
        <route edges="37591481 -113939241 113939244#0 113939244#1 113939244#2 -126606716 23339459 30405358#1 85355912 85355911#0 85355911#1 30405356 5931612 30350450#0 30350450#1 30350450#2 4319352#1"/>
    </vehicle>
    <vehicle id="Area Flow 8-34" type="Default" depart="51.00" departLane="best" departPos="random_free" departSpeed="max" color="244,155,120">
        <route edges="31241816#1 31241851#0 31241851#1 31241851#2 -31255203#0 -4006702#0 4319352#1 44069041#0 44069041#1 25472079 30405352 30350445 31353573#0 31353573#1"/>
    </vehicle>
    <vehicle id="Area Flow 13-9" type="Default" depart="52.00" departLane="best" departPos="random_free" departSpeed="max" color="56,45,103">
        <route edges="15259223 4006668 23339459 30405358#1 85355912 85355911#0 85355911#1 30405356 5931612 30350450#0 30350450#1 30350450#2 4006702#0 31255203#0 -31241851#2 -31241851#1 -31241851#0 31241816#3 31241835#1 31241834#0"/>
    </vehicle>
    <vehicle id="Area Flow 10-77" type="Default" depart="53.00" departLane="best" departPos="random_free" departSpeed="max" color="146,237,222">
        <route edges="-4099309 4900741 35842306#0 35842306#1 4047446#0 4047446#1 25472079 30405352 30350445 -33174302#1 -33174302#0 -32270595 -29900561#1 -29900561#0 -4006688#4"/>
    </vehicle>
    <vehicle id="Area Flow 22-40" type="Default" depart="54.00" departLane="best" departPos="random_free" departSpeed="max" color="36,149,171">
        <route edges="37591481 -113939241 113939244#0 113939244#1 113939244#2 -126606716 23339459 30405358#1 85355912 85355911#0 25472101 30405352 19796637 122161390 -30357194 3998612#0 -4006725#1 4006725#1"/>
    </vehicle>
    <vehicle id="Area Flow 9-42" type="Default" depart="54.00" departLane="best" departPos="random_free" departSpeed="max" color="192,175,243">
        <route edges="-28269598 28269598 -4006702#2 -4006702#1 31255203#0 -31241851#2"/>
    </vehicle>
    <vehicle id="Area Flow 10-57" type="Default" depart="55.00" departLane="best" departPos="random_free" departSpeed="max" color="146,237,222">
        <route edges="-4006690 4006690 -29900564#5 -29900564#4 -29900564#3 -29900564#2 -29900564#1 -8402998#2 -8402998#1 -8402997"/>
    </vehicle>
    <vehicle id="Area Flow 10-70" type="Default" depart="55.00" departLane="best" departPos="random_free" departSpeed="max" color="146,237,222">
        <route edges="-26188722 35842306#1 4047446#0 4047446#1 25472079 30405352 30350445 -33174302#1 -33174302#0 -32302591#5 32302591#5"/>
    </vehicle>
    <vehicle id="Area Flow 10-121" type="Default" depart="57.00" departLane="best" departPos="random_free" departSpeed="max" color="146,237,222">
        <route edges="94344940#3 -94344940#3 -94344940#2 -94344940#0 28768072 -28613737 -4006702#0 4319352#1 44069041#0 44069041#1 25472079 30405352 30350445 4686970#0"/>
    </vehicle>
    <vehicle id="Area Flow 22-136" type="Default" depart="57.00" departLane="best" departPos="random_free" departSpeed="max" color="36,149,171">
        <route edges="32320329 -32320329 -113939241 113939244#0 113939244#1 113939244#2 -126606716 23339459 30405358#1 85355912 85355911#0 85355911#1 30405356 5931612 30350450#0 -3998645#2 -3998645#1 -4006726#2 -4006726#1 -3998643#0"/>
    </vehicle>
    <vehicle id="Area Flow 9-141" type="Default" depart="57.00" departLane="best" departPos="random_free" departSpeed="max" color="192,175,243">
        <route edges="23805514#1 -4006702#2 -4006702#1 -4006702#0 -3013106#2 3998615#0 4006726#0 -4006726#0"/>
    </vehicle>
    <vehicle id="Area Flow 9-94" type="Default" depart="57.00" departLane="best" departPos="random_free" departSpeed="max" color="192,175,243">
        <route edges="23350930 4900041#3 4900041#0 -4900043 -4006702#1 -4006702#0 -3013106#2 -3013106#1 -3013106#0 -10573414#1 -10573414#0"/>
    </vehicle>
    <vehicle id="Area Flow 22-146" type="Default" depart="60.00" departLane="best" departPos="base" departSpeed="max" color="36,149,171">
        <route edges="32320329 -32320329 -113939241 113939244#0 113939244#1 113939244#2 -126606716 23339459 30405358#1 85355912 85355911#0 85355911#1 30405356 5931612 30350450#0 30350450#1 30350450#2 4006702#0 31255203#0 -31241851#2 -31241851#1 31261347"/>
    </vehicle>
    <vehicle id="Area Flow 22-147" type="Default" depart="61.00" departLane="best" departPos="base" departSpeed="max" color="36,149,171">