<?xml version="1.0" encoding="UTF-8"?>

<!-- generated on Sun Feb 15 13:39:42 2015 by SUMO duarouter Version 0.22.0
<?xml version="1.0" encoding="UTF-8"?>

<configuration xmlns:xsi="http://www.w3.org/2001/XMLSchema-instance" xsi:noNamespaceSchemaLocation="http://sumo.dlr.de/xsd/duarouterConfiguration.xsd">

    <input>
        <net-file value="/home/hendrik/CEC/ITSCmap/trafficmodeler/gen3/erlangen.net.xml"/>
        <trip-files value="/home/hendrik/CEC/ITSCmap/trafficmodeler/gen3/sim.generated-trips.xml"/>
    </input>

    <output>
        <output-file value="/home/hendrik/CEC/ITSCmap/trafficmodeler/gen3/erlangen.rou.xml"/>
    </output>

    <processing>
        <ignore-errors value="true"/>
        <repair value="true"/>
    </processing>

    <defaults>
        <departlane value="best"/>
        <departpos value="random_free"/>
        <departspeed value="max"/>
    </defaults>

    <time>
        <begin value="0"/>
        <end value="540"/>
    </time>

    <random_number>
        <seed value="1000"/>
    </random_number>

</configuration>
-->

<routes xmlns:xsi="http://www.w3.org/2001/XMLSchema-instance" xsi:noNamespaceSchemaLocation="http://sumo.dlr.de/xsd/routes_file.xsd">
    <vType id="Default" length="5.00" maxSpeed="70.00">
        <carFollowing-Krauss accel="2.60" decel="4.50" sigma="0.50"/>
    </vType>
    <vehicle id="Hotspot 29-Out-48" type="Default" depart="0.00" departLane="best" departPos="random_free" departSpeed="max" color="105,221,60">
        <route edges="30350449 5931612 30350450#0 30350450#1 30350450#2 4319353"/>
    </vehicle>
    <vehicle id="Hotspot 29-Out-82" type="Default" depart="6.00" departLane="best" departPos="random_free" departSpeed="max" color="105,221,60">
        <route edges="-26188722 35842306#1 4047446#0 4047446#1 25472079 30405352 30350445 31353573#0 31353573#1 -3998613#2 -3998613#1"/>
    </vehicle>
    <vehicle id="Hotspot 29-Out-1" type="Default" depart="8.00" departLane="best" departPos="random_free" departSpeed="max" color="105,221,60">
        <route edges="8364476 30350450#0 -3998645#2 -3998645#1 -3998645#0 -3998612#0 3998613#0 3998613#1 3998613#2 -31353573#1 4006673 32302591#5"/>
    </vehicle>
    <vehicle id="Hotspot 29-Out-60" type="Default" depart="24.00" departLane="best" departPos="random_free" departSpeed="max" color="105,221,60">
        <route edges="5931612 30350450#0 -3998645#2 -3998645#1 -3998645#0 -3998612#0 3998613#0 3998613#1 3998613#2 -31353573#1"/>
    </vehicle>
    <vehicle id="Hotspot 29-Out-49" type="Default" depart="39.00" departLane="best" departPos="random_free" departSpeed="max" color="105,221,60">
        <route edges="4047309 30751813 4047446#0 25472129 31982182#0 4047241 4797872 4797871"/>
    </vehicle>
    <vehicle id="Hotspot 29-Out-3" type="Default" depart="43.00" departLane="best" departPos="random_free" departSpeed="max" color="105,221,60">
        <route edges="30357194 25472299 30350448 8364476 30350450#0 -3998645#2 -3998615#3 4099270#1"/>
    </vehicle>
    <vehicle id="Hotspot 29-Out-5" type="Default" depart="44.00" departLane="best" departPos="random_free" departSpeed="max" color="105,221,60">
        <route edges="30405352 19796637 122161390 -30357194 3998613#0"/>
    </vehicle>
    <vehicle id="Hotspot 29-Out-17" type="Default" depart="45.00" departLane="best" departPos="random_free" departSpeed="max" color="105,221,60">
        <route edges="-30357194 30357194 25472299 30350448 30350449 25472079 30405352 30350445 -33174302#1 -33174302#0 -32270595 8402997 -8402998#0"/>
    </vehicle>
    <vehicle id="Hotspot 29-Out-77" type="Default" depart="51.00" departLane="best" departPos="random_free" departSpeed="max" color="105,221,60">
        <route edges="25472257 25472299 30350448 30350449 25472079 30405352 30350445 -33174302#1 -33174302#0 -32270595 -29900561#1 -29900561#0 -8403001 -4006674#4 -23605600#0"/>
    </vehicle>
    <vehicle id="Hotspot 29-Out-59" type="Default" depart="68.00" departLane="best" departPos="random_free" departSpeed="max" color="105,221,60">
        <route edges="25472134 30751813 4047446#0 4047446#1 25472079 30405352 30350445 -33174302#1 -33174302#0 -29900565#3 -29900565#2 -29900565#1"/>
    </vehicle>
    <vehicle id="Hotspot 29-Out-90" type="Default" depart="73.00" departLane="best" departPos="random_free" departSpeed="max" color="105,221,60">
        <route edges="4047446#1 5931612 30350450#0 30350450#1 30350450#2 4006702#0 4006702#1 4006702#2 -28269598 -4006703#1 4006705#1 4006705#2 31720632#0 31720633 -31720633"/>
    </vehicle>
    <vehicle id="Hotspot 29-Out-81" type="Default" depart="74.00" departLane="best" departPos="random_free" departSpeed="max" color="105,221,60">
        <route edges="25472299 30350448 30350449 25472079 30405352 19796637 122161390 -30357194 3998613#0"/>
    </vehicle>
    <vehicle id="Hotspot 29-Out-23" type="Default" depart="75.00" departLane="best" departPos="random_free" departSpeed="max" color="105,221,60">
        <route edges="30751813 4047446#0 25472129 31982182#0 4047241 4797872 4797871 4006668 126606716 113939242#0 113939242#1 -25398494#0"/>
    </vehicle>
    <vehicle id="Hotspot 29-Out-51" type="Default" depart="77.00" departLane="best" departPos="random_free" departSpeed="max" color="105,221,60">
        <route edges="44069041#0 44069041#1 5931612 30350450#0 30350450#1 30350450#2 4006702#0 28613737 94344941 94344940#0 -28613727#1 -28613727#0 -28613734"/>
    </vehicle>
    <vehicle id="Hotspot 29-Out-18" type="Default" depart="84.00" departLane="best" departPos="random_free" departSpeed="max" color="105,221,60">
        <route edges="25472101 30405352 19796637 122161381 30350448 8364476 30350450#0 30350450#1 30350450#2 4006702#0 4006702#1 4006702#2 -28269598 -4006703#1 4006705#1 -25210699"/>
    </vehicle>
    <vehicle id="Hotspot 29-Out-41" type="Default" depart="86.00" departLane="best" departPos="random_free" departSpeed="max" color="105,221,60">
        <route edges="4686970#0 25472257 -30357194 3998613#0 3998613#1 4006740 -4006740"/>
    </vehicle>
    <vehicle id="Hotspot 29-Out-28" type="Default" depart="89.00" departLane="best" departPos="random_free" departSpeed="max" color="105,221,60">
        <route edges="19796637 122161381 30350448 30350449 25472079 30405352 30350445 -33174302#1 -33174302#0 -32302591#5 -32302591#4 4006676"/>
    </vehicle>
    <vehicle id="Hotspot 29-Out-44" type="Default" depart="89.00" departLane="best" departPos="random_free" departSpeed="max" color="105,221,60">
        <route edges="30405352 19796637 122161381 30350448 30350449 4400949 31982182#0 4047241 4797872 4797871 4006668 126606716 113939242#0 113939242#1"/>
    </vehicle>
    <vehicle id="Hotspot 29-Out-24" type="Default" depart="91.00" departLane="best" departPos="random_free" departSpeed="max" color="105,221,60">
        <route edges="-30357194 3998612#0 3998612#1 3998612#2 3013106#0 3013106#1 3013106#2 4006702#0 4006702#1 4900043 4900041#1 4900041#2 4900041#3 4900041#0 -4900043"/>
    </vehicle>
    <vehicle id="Hotspot 29-Out-70" type="Default" depart="91.00" departLane="best" departPos="random_free" departSpeed="max" color="105,221,60">
        <route edges="31982182#0 4047241 4797872 4797871 4006668 23339459 30405358#1 85355912 85355911#0 25472101 30405352 30350445 31353573#0 31353573#1 -3998613#2 3998613#2"/>
    </vehicle>
    <vehicle id="Hotspot 29-Out-63" type="Default" depart="92.00" departLane="best" departPos="random_free" departSpeed="max" color="105,221,60">
        <route edges="122161390 25472299 30350448 30350449 4047309 30751813 -35842306#1 -35842306#0 -4900741 -4900739#2 -4900739#1"/>
    </vehicle>
    <vehicle id="Hotspot 29-Out-37" type="Default" depart="100.00" departLane="best" departPos="random_free" departSpeed="max" color="105,221,60">
        <route edges="30350445 4686970#0 4686970#1 122161381 30350448 8364476 30350450#0 30350450#1 -3998643#2 -3998615#1 3998615#1"/>
    </vehicle>
    <vehicle id="Hotspot 29-Out-14" type="Default" depart="109.00" departLane="best" departPos="random_free" departSpeed="max" color="105,221,60">
        <route edges="8364476 30350450#0 30350450#1 30350450#2 4319352#1 44069041#0 25472134 30751813 -35842306#1 -35842306#0 -31777493#1 -31777493#0 -4047316"/>
    </vehicle>
    <vehicle id="Hotspot 29-Out-32" type="Default" depart="110.00" departLane="best" departPos="random_free" departSpeed="max" color="105,221,60">
        <route edges="25472129 31982182#0 4047241 4797872 4797871 4006668 126606716 113939242#0 113939242#1 -25398494#0 4006693#0 4006693#1 4006693#2 10425128#0 10425128#1 -10425128#1"/>
    </vehicle>
    <vehicle id="Hotspot 29-Out-10" type="Default" depart="121.00" departLane="best" departPos="random_free" departSpeed="max" color="105,221,60">
        <route edges="44069041#0 44069041#1 25472079 30405352 30350445 -33174302#1 -33174302#0 -29900565#3 -29900565#2 -29900565#1 -29900565#0 -4006690 --5558"/>
    </vehicle>
    <vehicle id="Hotspot 29-Out-96" type="Default" depart="126.00" departLane="best" departPos="random_free" departSpeed="max" color="105,221,60">
        <route edges="25472079 30405352 19796637 122161381 30350448 8364476 30350450#0 30350450#1 30350450#2 4006702#0 28613737 94344941 94344940#0 -28613727#1 28631632 -28631632"/>
    </vehicle>
    <vehicle id="Hotspot 29-Out-78" type="Default" depart="140.00" departLane="best" departPos="random_free" departSpeed="max" color="105,221,60">
        <route edges="30350450#0 30350450#1 30350450#2 4319352#1 44069041#0 44069041#1 25472079 30405352 30350445 -33174302#1 -33174302#0 -32270595 8402997 8402998#1 8402998#2 29900564#1 29900564#2 29900564#3 -10425128#1 -10425128#0 10425128#0"/>
    </vehicle>
    <vehicle id="Hotspot 29-Out-26" type="Default" depart="142.00" departLane="best" departPos="random_free" departSpeed="max" color="105,221,60">
        <route edges="26188722 -26188722 35842306#1 4047446#0 4047446#1 25472079 30405352 30350445 -33174302#1 -33174302#0 -32270595 8402997 8402998#1 8402998#2 29900564#1 29900564#2 29900564#3 -10425128#1 10425128#1"/>
    </vehicle>
    <vehicle id="Hotspot 29-Out-67" type="Default" depart="144.00" departLane="best" departPos="random_free" departSpeed="max" color="105,221,60">
        <route edges="4047309 30751813 4047446#0 4047446#1 25472079 30405352 19796637 122161390 -30357194 3998612#0 -4006725#1 -4872369 4872369"/>
    </vehicle>
    <vehicle id="Hotspot 29-Out-53" type="Default" depart="146.00" departLane="best" departPos="random_free" departSpeed="max" color="105,221,60">
        <route edges="25472101 30405352 30350445 -33174302#1 -33174302#0 -29900565#3 -29900565#2 -29900565#1 -29900565#0 -4006690 4006690"/>
    </vehicle>
    <vehicle id="Hotspot 29-Out-38" type="Default" depart="153.00" departLane="best" departPos="random_free" departSpeed="max" color="105,221,60">
        <route edges="4686970#0 4686970#1 122161381 30350448 30350449 4400949 31982182#0 4047241 4797872 4797871 -15259223 15259223"/>
    </vehicle>
    <vehicle id="Hotspot 29-Out-94" type="Default" depart="153.00" departLane="best" departPos="random_free" departSpeed="max" color="105,221,60">
        <route edges="25472129 31982182#0 4047241 4797872 4797871 4006668 126606716 113939242#0 5445204#1"/>
    </vehicle>
    <vehicle id="Hotspot 29-Out-31" type="Default" depart="155.00" departLane="best" departPos="random_free" departSpeed="max" color="105,221,60">
        <route edges="85355911#1 30405356 4047309 30751813 -35842306#1 -35842306#0 -4900741 -4900739#2 -4900739#1 -4099309"/>
    </vehicle>
    <vehicle id="Hotspot 29-Out-61" type="Default" depart="158.00" departLane="best" departPos="random_free" departSpeed="max" color="105,221,60">
        <route edges="25472129 31982182#0 4047241 4797872 4797871 4006668 126606716 113939242#0 113939242#1 -25398494#0 4006693#0 4006693#1 4006693#2 4006693#3 -4006693#3"/>
    </vehicle>
    <vehicle id="Hotspot 29-Out-21" type="Default" depart="168.00" departLane="best" departPos="random_free" departSpeed="max" color="105,221,60">
        <route edges="85355911#0 25472101 30405352 30350445 -33174302#1 -33174302#0"/>
    </vehicle>
    <vehicle id="Hotspot 29-Out-43" type="Default" depart="171.00" departLane="best" departPos="random_free" departSpeed="max" color="105,221,60">
        <route edges="30357194 -30357194 3998612#0"/>
    </vehicle>
    <vehicle id="Hotspot 29-Out-97" type="Default" depart="176.00" departLane="best" departPos="random_free" departSpeed="max" color="105,221,60">
        <route edges="5931612 30350450#0 30350450#1 30350450#2"/>
    </vehicle>
    <vehicle id="Hotspot 29-Out-8" type="Default" depart="186.00" departLane="best" departPos="random_free" departSpeed="max" color="105,221,60">
        <route edges="30357194 -30357194 3998613#0 -3998613#0"/>
    </vehicle>
    <vehicle id="Hotspot 29-Out-30" type="Default" depart="187.00" departLane="best" departPos="random_free" departSpeed="max" color="105,221,60">
        <route edges="85355912 85355911#0 25472101 30405352 30350445 -33174302#1 -33174302#0 -32270595 -29900561#1 -29900561#0 -8403001 -4006674#4 -4006674#3 -4006674#2 -4006683"/>
    </vehicle>
    <vehicle id="Hotspot 29-Out-76" type="Default" depart="189.00" departLane="best" departPos="random_free" departSpeed="max" color="105,221,60">
        <route edges="4047446#0 4047446#1 4047309 30751813 -35842306#1 -35842306#0 35842306#0"/>
    </vehicle>
    <vehicle id="Hotspot 29-Out-6" type="Default" depart="191.00" departLane="best" departPos="random_free" departSpeed="max" color="105,221,60">
        <route edges="25472129 31982182#0 4047241 4797872 4797871 4006668 23339459 30405358#1 85355912 85355911#0 85355911#1 30405356 5931612 30350450#0 30350450#1 30350450#2 4006702#0 4006702#1 4006702#2 -28269598 -4006703#1 4006705#1 -4006705#1"/>
    </vehicle>
    <vehicle id="Hotspot 29-Out-66" type="Default" depart="192.00" departLane="best" departPos="random_free" departSpeed="max" color="105,221,60">
        <route edges="30350445 4686970#0 4686970#1 122161381 30350448 8364476 30350450#0 30350450#1 30350450#2 4006702#0 31255203#0 -31241851#2"/>
    </vehicle>
    <vehicle id="Hotspot 29-Out-35" type="Default" depart="199.00" departLane="best" departPos="random_free" departSpeed="max" color="105,221,60">
        <route edges="30751813 4047446#0 4047446#1 5931612 30350450#0 30350450#1 30350450#2 4006702#0 4006702#1 4006702#2 -28269598 -4006703#1"/>
    </vehicle>
    <vehicle id="Hotspot 29-Out-46" type="Default" depart="206.00" departLane="best" departPos="random_free" departSpeed="max" color="105,221,60">
        <route edges="4047446#0 4047446#1 5931612 30350450#0 30350450#1 30350450#2 4006702#0 31255203#0 -31241851#2 -31241851#1 -31241851#0 31241851#0"/>
    </vehicle>
    <vehicle id="Hotspot 29-Out-88" type="Default" depart="207.00" departLane="best" departPos="random_free" departSpeed="max" color="105,221,60">
        <route edges="30751813 4047446#0 4047446#1 5931612 30350450#0 30350450#1 30350450#2 4006702#0 31255203#0 -31241851#2 -31241851#1 -31241851#0 -31241848 31241848"/>
    </vehicle>
    <vehicle id="Hotspot 29-Out-83" type="Default" depart="211.00" departLane="best" departPos="random_free" departSpeed="max" color="105,221,60">
        <route edges="31982182#0 4047241 4797872 4797871 4006668 23339459 30405358#1 85355912 85355911#0 25472101 30405352 30350445 -33174302#1 -33174302#0 -32270595 -29900561#1 -29900561#0 -8403001 -4006674#4 -4006674#3 -4006674#2 4006674#2"/>
    </vehicle>
    <vehicle id="Hotspot 29-Out-68" type="Default" depart="228.00" departLane="best" departPos="random_free" departSpeed="max" color="105,221,60">
        <route edges="44069041#0 44069041#1 5931612 30350450#0 -3998645#2 -3998645#1 -4006726#2"/>
    </vehicle>
    <vehicle id="Hotspot 29-Out-80" type="Default" depart="230.00" departLane="best" departPos="random_free" departSpeed="max" color="105,221,60">
        <route edges="44069041#0 25472134 30751813 -35842306#1 -35842306#0 -4900741 -4900739#2 -4900739#1 4900739#1"/>
    </vehicle>
    <vehicle id="Hotspot 29-Out-72" type="Default" depart="236.00" departLane="best" departPos="random_free" departSpeed="max" color="105,221,60">
        <route edges="-30357194 30357194 25472299 30350448 30350449 25472079 30405352 30350445 -33174302#1 -33174302#0 -32270595 -29900561#1 -29900561#0 -4006688#4 -4006688#3 -4006688#2 -4006688#1 -4006688#0 -31401017#0 -29900567 29900567"/>
    </vehicle>
    <vehicle id="Hotspot 29-Out-11" type="Default" depart="239.00" departLane="best" departPos="random_free" departSpeed="max" color="105,221,60">
        <route edges="25472134 30751813 4047446#0 4047446#1 5931612 30350450#0 -3998645#2 -3998645#1 -4006726#2 -4006726#1 3998643#1"/>
    </vehicle>
    <vehicle id="Hotspot 29-Out-25" type="Default" depart="249.00" departLane="best" departPos="random_free" departSpeed="max" color="105,221,60">
        <route edges="8364476 30350450#0 -3998645#2 -3998615#3 -4099270#0"/>
    </vehicle>
    <vehicle id="Hotspot 29-Out-33" type="Default" depart="249.00" departLane="best" departPos="random_free" departSpeed="max" color="105,221,60">
        <route edges="4686970#1 122161381 30350448 8364476 30350450#0 30350450#1 30350450#2 4006702#0 28613737 94344941 94344940#0 -28613727#1 -28613727#0"/>
    </vehicle>
    <vehicle id="Hotspot 29-Out-15" type="Default" depart="257.00" departLane="best" departPos="random_free" departSpeed="max" color="105,221,60">
        <route edges="8364476 30350450#0 30350450#1 30350450#2 4319352#1 44069041#0 44069041#1 25472079 30405352 30350445 -33174302#1 -33174302#0 -29900565#3 -29900565#2 29900565#2"/>
    </vehicle>
    <vehicle id="Hotspot 29-Out-4" type="Default" depart="257.00" departLane="best" departPos="random_free" departSpeed="max" color="105,221,60">
        <route edges="25472257 25472299 30350448 30350449 25472079 30405352 30350445 -33174302#1 -33174302#0 -29900565#3 -29900565#2 -29900565#1 -29900565#0 -29900564#5"/>
    </vehicle>
    <vehicle id="Hotspot 29-Out-89" type="Default" depart="262.00" departLane="best" departPos="random_free" departSpeed="max" color="105,221,60">
        <route edges="25472299 30350448 30350449 25472079 30405352 30350445 -33174302#1 -33174302#0 -32270595 8402997 8402998#1 8402998#2 29900564#1 8403007 23605595 4006693#1 -10419402 -23570844#2"/>
    </vehicle>
    <vehicle id="Hotspot 29-Out-2" type="Default" depart="266.00" departLane="best" departPos="random_free" departSpeed="max" color="105,221,60">
        <route edges="8364476 30350450#0 -3998645#2 -3998645#1 -3998645#0 -3998612#0 3998613#0 3998613#1 3998613#2 -31353573#1 4006673 -32302591#4 -32302591#3 -32302591#2 4006683"/>
    </vehicle>
    <vehicle id="Hotspot 29-Out-47" type="Default" depart="271.00" departLane="best" departPos="random_free" departSpeed="max" color="105,221,60">
        <route edges="25472129 31982182#0 4047241 4797872 4797871 4006668 126606716 113939242#0 113939242#1 113939242#2 113939241 -37591481 -28269601 28269601"/>
    </vehicle>
    <vehicle id="Hotspot 29-Out-52" type="Default" depart="278.00" departLane="best" departPos="random_free" departSpeed="max" color="105,221,60">
        <route edges="25472257 25472299 30350448 30350449 25472079 30405352 30350445 -33174302#1 -33174302#0 -32270595 -29900561#1 -29900561#0 -4006688#4 -4006688#3 -4006688#2 -4006688#1 -4006688#0 31401017#1 -8402998#3"/>
    </vehicle>
    <vehicle id="Hotspot 29-Out-62" type="Default" depart="289.00" departLane="best" departPos="random_free" departSpeed="max" color="105,221,60">
        <route edges="-30357194 30357194 25472299 30350448 30350449 25472079 30405352 30350445 -33174302#1 -33174302#0 -32270595 -29900561#1 -29900561#0 -8403001 -4006674#4 -4006674#3 -4006674#2 -4006674#1"/>
    </vehicle>
    <vehicle id="Hotspot 29-Out-50" type="Default" depart="290.00" departLane="best" departPos="random_free" departSpeed="max" color="105,221,60">
        <route edges="122161390 25472299 30350448 8364476 30350450#0 30350450#1 30350450#2 4006702#0 31255203#0 -31241851#2 -31241853#2 -31241853#1 -31241853#0 31241853#0"/>
    </vehicle>
    <vehicle id="Hotspot 29-Out-91" type="Default" depart="296.00" departLane="best" departPos="random_free" departSpeed="max" color="105,221,60">
        <route edges="30350450#0 30350450#1 30350450#2 4006702#0 31255203#0 -31241851#2 -31241853#2 31241838#1"/>
    </vehicle>
    <vehicle id="Hotspot 29-Out-0" type="Default" depart="305.00" departLane="best" departPos="random_free" departSpeed="max" color="105,221,60">
        <route edges="19796637 122161381 30350448 30350449 25472079 30405352 30350445 -33174302#1 -33174302#0 -32270595 -29900561#1 -29900561#0 -8403001 -4006674#4 -4006674#3 -4006674#2 -4006674#1 -4006674#0"/>
    </vehicle>
    <vehicle id="Hotspot 29-Out-27" type="Default" depart="310.00" departLane="best" departPos="random_free" departSpeed="max" color="105,221,60">
        <route edges="30350445 4686970#0 25472257 -30357194 3998612#0 3998612#1 -4006724#2"/>
    </vehicle>
    <vehicle id="Hotspot 29-Out-73" type="Default" depart="311.00" departLane="best" departPos="random_free" departSpeed="max" color="105,221,60">
        <route edges="30405352 19796637 122161381 30350448 8364476 30350450#0 30350450#1 30350450#2 4006702#0 31255203#0 -31241851#2 -31241853#2 -31241853#1 31241853#1"/>
    </vehicle>
    <vehicle id="Hotspot 29-Out-93" type="Default" depart="312.00" departLane="best" departPos="random_free" departSpeed="max" color="105,221,60">
        <route edges="30357194 25472299 30350448 8364476 30350450#0 30350450#1 -3998643#2 3998643#2"/>
    </vehicle>
    <vehicle id="Hotspot 29-Out-36" type="Default" depart="342.00" departLane="best" departPos="random_free" departSpeed="max" color="105,221,60">
        <route edges="30350449 4047309 30751813 -35842306#1 -35842306#0 -4900741 -4900739#2"/>
    </vehicle>
    <vehicle id="Hotspot 29-Out-42" type="Default" depart="342.00" departLane="best" departPos="random_free" departSpeed="max" color="105,221,60">
        <route edges="25472257 25472299 30350448 8364476 30350450#0 30350450#1 30350450#2 4006702#0 4006702#1 4006702#2 -28269598 -4006703#1 4006705#1 4006705#2 31720632#0 -31720632#0"/>
    </vehicle>
    <vehicle id="Hotspot 29-Out-95" type="Default" depart="346.00" departLane="best" departPos="random_free" departSpeed="max" color="105,221,60">
        <route edges="8364476 30350450#0 -3998645#2 3998645#2"/>
    </vehicle>
    <vehicle id="Hotspot 29-Out-54" type="Default" depart="351.00" departLane="best" departPos="random_free" departSpeed="max" color="105,221,60">
        <route edges="-30357194 3998612#0 3998612#1 3998612#2 3013106#0 3013106#1 3013106#2 4006702#0 28613737"/>
    </vehicle>
    <vehicle id="Hotspot 29-Out-12" type="Default" depart="352.00" departLane="best" departPos="random_free" departSpeed="max" color="105,221,60">
        <route edges="85355911#1 30405356 4400949 31982182#0 4047241 4797872 4797871 4006668 126606716 113939242#0 5445204#1 -5445204#1"/>
    </vehicle>
    <vehicle id="Hotspot 29-Out-45" type="Default" depart="353.00" departLane="best" departPos="random_free" departSpeed="max" color="105,221,60">
        <route edges="30350445 4686970#0 4686970#1 122161381 30350448 30350449 4400949 31982182#0 4047241 4797872 4797871 4006668 126606716 113939242#0 5445204#1 5445204#2 39539626 -39539626"/>
    </vehicle>
    <vehicle id="Hotspot 29-Out-56" type="Default" depart="355.00" departLane="best" departPos="random_free" departSpeed="max" color="105,221,60">
        <route edges="4686970#0 25472257 -30357194 3998612#0 3998612#1 -3998612#1"/>
    </vehicle>
    <vehicle id="Hotspot 29-Out-71" type="Default" depart="358.00" departLane="best" departPos="random_free" departSpeed="max" color="105,221,60">
        <route edges="4047446#0 4047446#1 25472079 30405352 30350445 -33174302#1 -33174302#0 -32270595 -29900561#1 -29900561#0 -8403001 -4006674#4 -4006674#3 -4006674#2 -4006674#1 -4006674#0 -4006672"/>
    </vehicle>
    <vehicle id="Hotspot 29-Out-57" type="Default" depart="368.00" departLane="best" departPos="random_free" departSpeed="max" color="105,221,60">
        <route edges="8364476 30350450#0 -3998645#2"/>
    </vehicle>
    <vehicle id="Hotspot 29-Out-40" type="Default" depart="375.00" departLane="best" departPos="random_free" departSpeed="max" color="105,221,60">
        <route edges="-26188722 35842306#1 4047446#0 4047446#1 5931612 30350450#0 -3998645#2 -3998645#1 -3998645#0"/>
    </vehicle>
    <vehicle id="Hotspot 29-Out-75" type="Default" depart="389.00" departLane="best" departPos="random_free" departSpeed="max" color="105,221,60">
        <route edges="25472257 25472299 30350448 30350449 25472079 30405352 30350445 -33174302#1 -33174302#0 -32270595 8402997 8402998#1 8402998#2 29900564#1 8403007"/>
    </vehicle>
    <vehicle id="Hotspot 29-Out-98" type="Default" depart="394.00" departLane="best" departPos="random_free" departSpeed="max" color="105,221,60">
        <route edges="25472257 25472299 30350448 8364476 30350450#0 -3998645#2 -3998645#1 -4006726#2 -4006726#1 4006726#1"/>
    </vehicle>
    <vehicle id="Hotspot 29-Out-55" type="Default" depart="399.00" departLane="best" departPos="random_free" departSpeed="max" color="105,221,60">
        <route edges="30350450#0 30350450#1 30350450#2 4006702#0 4006702#1 4006702#2 -28269598 -4006703#1 4006705#1 -4006705#1"/>
    </vehicle>
    <vehicle id="Hotspot 29-Out-65" type="Default" depart="417.00" departLane="best" departPos="random_free" departSpeed="max" color="105,221,60">
        <route edges="30350448 30350449 25472079 30405352 30350445 -33174302#1 -33174302#0 -32270595 -29900561#1 -29900561#0 -4006688#4 10425131"/>
    </vehicle>
    <vehicle id="Hotspot 29-Out-64" type="Default" depart="429.00" departLane="best" departPos="random_free" departSpeed="max" color="105,221,60">
        <route edges="25472129 31982182#0 4047241 4797872 4797871 4006668 126606716 113939242#0 113939242#1 -25398494#0 -31401017#2 -31401017#1 -31401017#0 -29900567 -31401018 -4047532 -32270592#1"/>
    </vehicle>
    <vehicle id="Hotspot 29-Out-69" type="Default" depart="433.00" departLane="best" departPos="random_free" departSpeed="max" color="105,221,60">
        <route edges="4686970#1 122161390 -30357194 3998612#0 3998645#0"/>
    </vehicle>
    <vehicle id="Hotspot 29-Out-34" type="Default" depart="439.00" departLane="best" departPos="random_free" departSpeed="max" color="105,221,60">
        <route edges="5931612 30350450#0 30350450#1 30350450#2 4006702#0 31255203#0 -31241851#2 -31241853#2 -31241853#1 -31241853#0 31241853#0"/>
    </vehicle>
    <vehicle id="Hotspot 29-Out-29" type="Default" depart="444.00" departLane="best" departPos="random_free" departSpeed="max" color="105,221,60">
        <route edges="85355912 85355911#0 25472101 30405352 30350445 -33174302#1 -33174302#0 -32270595 -29900561#1 -29900561#0 -4006688#4 -4006688#3 -4006688#2 -4006688#1 -4006688#0 -31401017#0 -29900567 -31401018 31401018"/>
    </vehicle>
    <vehicle id="Hotspot 29-Out-19" type="Default" depart="445.00" departLane="best" departPos="random_free" departSpeed="max" color="105,221,60">
        <route edges="4047446#1 25472079 30405352 30350445 -33174302#1 -33174302#0 -32270595 -29900561#1 -29900561#0 -8403001 -4006674#4 -4006674#3 -4006674#2 -4006674#1 -4006674#0 32270593 -32270593"/>
    </vehicle>
    <vehicle id="Hotspot 29-Out-20" type="Default" depart="447.00" departLane="best" departPos="random_free" departSpeed="max" color="105,221,60">
        <route edges="5931612 30350450#0 -3998645#2 -3998645#1 -3998645#0 -3998612#0 3998613#0 3998613#1 3998613#2 -31353573#1 4006673 -32302591#4 -32302591#3 32302591#3"/>
    </vehicle>
    <vehicle id="Hotspot 29-Out-39" type="Default" depart="449.00" departLane="best" departPos="random_free" departSpeed="max" color="105,221,60">
        <route edges="25472257 25472299 30350448 30350449 25472079 30405352 30350445 -33174302#1 -33174302#0 33174302#0"/>
    </vehicle>
    <vehicle id="Hotspot 29-Out-79" type="Default" depart="453.00" departLane="best" departPos="random_free" departSpeed="max" color="105,221,60">
        <route edges="122161381 30350448 8364476 30350450#0 30350450#1 30350450#2 4006702#0 4006702#1 4900043 4900041#1 4900041#2 -23350930 23350930"/>
    </vehicle>
    <vehicle id="Hotspot 29-Out-13" type="Default" depart="463.00" departLane="best" departPos="random_free" departSpeed="max" color="105,221,60">
        <route edges="19796637 122161381 30350448 30350449 25472079 30405352 30350445 -33174302#1 -33174302#0 -32270595 8402997 8402998#1 8402998#2 29900564#1 29900564#2 29900564#3 29900564#4 -29900564#4"/>
    </vehicle>
    <vehicle id="Hotspot 29-Out-58" type="Default" depart="467.00" departLane="best" departPos="random_free" departSpeed="max" color="105,221,60">
        <route edges="25472129 31982182#0 4047241 4797872 4797871 4006668 126606716 113939242#0 113939242#1"/>
    </vehicle>
    <vehicle id="Hotspot 29-Out-7" type="Default" depart="475.00" departLane="best" departPos="random_free" departSpeed="max" color="105,221,60">
        <route edges="122161381 30350448 8364476 30350450#0 30350450#1 30350450#2 4006702#0 28613737 94344941 94344940#0 67076129 -67076129"/>
    </vehicle>
    <vehicle id="Hotspot 29-Out-87" type="Default" depart="480.00" departLane="best" departPos="random_free" departSpeed="max" color="105,221,60">
        <route edges="25472079 30405352 19796637 122161381 30350448 8364476 30350450#0 30350450#1 30350450#2 4006702#0 31255203#0 -31241851#2 -31241851#1 -31241851#0 -31241816#1 -31241838#1"/>
    </vehicle>
    <vehicle id="Hotspot 29-Out-85" type="Default" depart="481.00" departLane="best" departPos="random_free" departSpeed="max" color="105,221,60">
        <route edges="25472134 30751813 4047446#0 25472129 31982182#0 4047241 4797872 4797871 4006668 23339459 30405358#1"/>
    </vehicle>
    <vehicle id="Hotspot 29-Out-16" type="Default" depart="486.00" departLane="best" departPos="random_free" departSpeed="max" color="105,221,60">