<?xml version="1.0" encoding="UTF-8" standalone="no"?><!-- generated on Sun Feb 15 12:24:38 2015 by SUMO netconvert Version 0.22.0
<?xml version="1.0" encoding="UTF-8"?>

<configuration xmlns:xsi="http://www.w3.org/2001/XMLSchema-instance" xsi:noNamespaceSchemaLocation="http://sumo.dlr.de/xsd/netconvertConfiguration.xsd">

    <input>
        <sumo-net-file value="erlangen.net.xml"/>
    </input>

    <output>
        <plain-output-prefix value="erlangen"/>
    </output>

    <processing>
        <no-turnarounds value="true"/>
        <offset.disable-normalization value="true"/>
    </processing>

</configuration>
--><edges xmlns:xsi="http://www.w3.org/2001/XMLSchema-instance" version="0.13" xsi:noNamespaceSchemaLocation="http://sumo.dlr.de/xsd/edges_file.xsd">
    <edge from="cluster_269721025_411050745" id="--5558" numLanes="1" priority="4" shape="646338.04,5493179.03 646359.25,5493159.07 646393.23,5493127.01" speed="13.89" to="255265426" type="highway.residential"/>
    <edge from="399712519" id="-10419402" numLanes="1" priority="4" shape="646499.46,5493336.33 646530.30,5493303.61 646548.08,5493284.77 646551.48,5493280.50 646552.30,5493275.18 646550.72,5493270.50 646546.53,5493266.30 646525.11,5493245.87 646507.98,5493229.53 646477.06,5493200.04 646472.31,5493195.51 646463.68,5493187.28 646438.09,5493162.87 646433.82,5493158.80 646396.76,5493123.45" speed="13.89" to="39537829" type="highway.residential"/>
    <edge from="89119479" id="-10425128#0" numLanes="1" priority="4" shape="646392.47,5493318.71 646419.65,5493300.87 646442.17,5493278.20" speed="8.33" to="399712523" type="highway.residential"/>
    <edge from="349116359" id="-10425128#1" numLanes="1" priority="4" shape="646323.81,5493344.02 646336.60,5493341.35 646362.88,5493334.01 646392.47,5493318.71" speed="8.33" to="89119479" type="highway.residential"/>
    <edge from="89119501" id="-10425130" numLanes="1" priority="4" shape="646356.19,5493701.55 646350.18,5493772.69 646446.93,5493777.19 646461.13,5493706.89" speed="13.89" to="89119484" type="highway.residential"/>
    <edge from="89119510" id="-10425131" numLanes="1" priority="4" shape="646385.38,5493612.70 646361.35,5493674.23 646356.19,5493701.55" speed="13.89" to="89119501" type="highway.residential"/>
    <edge from="21968155" id="-10573414#0" numLanes="1" priority="6" shape="644989.56,5494101.19 644985.28,5494145.40 644980.85,5494204.97 644975.73,5494223.70 644957.74,5494293.86 644943.70,5494355.04 644931.72,5494408.57 644920.39,5494463.06 644909.17,5494521.43 644899.00,5494573.45" speed="13.89" to="12247705" type="highway.tertiary"/>
    <edge from="12247702" id="-10573414#1" numLanes="1" priority="6" shape="644985.28,5493963.56 644989.03,5494026.42 644989.56,5494101.19" speed="13.89" to="21968155" type="highway.tertiary"/>
    <edge from="95087512" id="-10712011" numLanes="1" priority="4" shape="646521.43,5493633.09 646494.48,5493686.97 646487.23,5493710.11" speed="13.89" to="95087508" type="highway.residential"/>
    <edge from="95087518" id="-10712013" numLanes="1" priority="4" shape="646452.80,5493622.57 646428.41,5493679.83 646423.36,5493703.35" speed="13.89" to="95087515" type="highway.residential"/>
    <edge from="26841333" id="-113939241" numLanes="1" priority="6" shape="646997.41,5494104.79 646995.38,5494077.43 646987.45,5493967.53 646947.59,5493750.36 646906.11,5493545.77" speed="16.67" to="411797695" type="highway.tertiary"/>
    <edge from="cluster_17574058_411035708_411035715" id="-125685391" numLanes="1" priority="6" shape="646040.47,5494123.74 646041.35,5494133.68 646042.46,5494146.28 646049.40,5494222.63 646050.32,5494233.96 646052.19,5494256.80 646057.41,5494310.18 646057.76,5494311.36 646063.78,5494376.89 646066.09,5494403.80 646067.74,5494418.98 646071.71,5494457.87 646071.87,5494466.00" speed="13.89" to="1395333452" type="highway.tertiary"/>
    <edge from="335145965" id="-126606716" numLanes="1" priority="6" shape="646880.99,5493049.50 646892.39,5492892.66 646882.24,5492765.60 646880.47,5492739.53" speed="16.67" to="411797709" type="highway.tertiary"/>
    <edge from="12452103" id="-15259223" numLanes="1" priority="6" shape="646880.80,5492685.47 646880.93,5492675.08 646883.01,5492627.24 646883.90,5492601.78 646890.94,5492556.47 646903.25,5492505.26 646920.47,5492433.69 646986.76,5492158.09 647067.46,5491822.61 647071.55,5491786.25" speed="22.22" to="411732364" type="highway.tertiary"/>
    <edge from="26841364" id="-23341293" numLanes="1" priority="4" shape="646423.86,5493452.14 646425.73,5493421.14 646420.37,5493389.43 646411.33,5493356.37 646392.47,5493318.71" speed="8.33" to="89119479" type="highway.residential"/>
    <edge from="25504680" id="-23350929" numLanes="1" priority="4" shape="644635.51,5493400.47 644634.25,5493409.11 644645.89,5493435.60 644647.10,5493439.61" speed="13.89" to="252847876" type="highway.residential"/>
    <edge from="25504695" id="-23350930" numLanes="1" priority="4" shape="644626.48,5493382.31 644618.53,5493376.25 644613.24,5493363.91 644605.00,5493345.13" speed="13.89" to="252847877" type="highway.residential"/>
    <edge from="252726232" id="-23360299" numLanes="1" priority="4" shape="646821.62,5493125.61 646822.38,5493091.92 646850.64,5493061.64 646850.64,5492905.21" speed="13.89" to="252939637" type="highway.residential"/>
    <edge from="39537846" id="-23570844#1" numLanes="1" priority="4" shape="646499.85,5492909.20 646516.68,5492890.39 646554.79,5492848.85 646625.77,5492770.50" speed="13.89" to="411050728" type="highway.residential"/>
    <edge from="39537829" id="-23570844#2" numLanes="1" priority="4" shape="646396.76,5493123.45 646420.41,5493097.19 646426.95,5493083.81 646443.03,5493050.96 646443.79,5492979.25 646457.59,5492952.58 646499.85,5492909.20" speed="13.89" to="39537846" type="highway.residential"/>
    <edge from="26841358" id="-23605595" numLanes="1" priority="4" shape="646584.54,5493411.27 646535.43,5493430.42 646512.23,5493437.10 646480.95,5493444.02 646423.86,5493452.14" speed="13.89" to="26841364" type="highway.residential"/>
    <edge from="17574088" id="-23605600#0" numLanes="1" priority="4" shape="646285.06,5493835.63 646228.11,5493829.67 646181.28,5493822.74 646146.75,5493816.14 646084.30,5493803.40 646028.79,5493790.55" speed="8.33" to="17574061" type="highway.residential"/>
    <edge from="17574090" id="-23605600#1" numLanes="1" priority="4" speed="8.33" to="17574088" type="highway.residential"/>
    <edge from="17574091" id="-23605600#2" numLanes="1" priority="4" speed="8.33" to="17574090" type="highway.residential"/>
    <edge from="366720044" id="-23805514#0" numLanes="1" priority="6" shape="644583.94,5493029.00 644533.64,5493038.16 644465.09,5493053.01" speed="13.89" to="257950220" type="highway.tertiary"/>
    <edge from="14319161" id="-23805514#1" numLanes="1" priority="6" speed="13.89" to="366720044" type="highway.tertiary"/>
    <edge from="274874760" id="-25210699" numLanes="1" priority="4" shape="644738.11,5492788.55 644745.95,5492734.63 644753.83,5492676.94 644804.54,5492488.72" speed="13.89" to="25300251" type="highway.residential"/>
    <edge from="cluster_1291385696_21971288" id="-25398494#0" numLanes="1" priority="4" shape="646873.45,5493330.32 646867.67,5493329.90 646861.66,5493329.52 646826.21,5493340.52 646816.63,5493350.50 646744.01,5493423.97 646673.91,5493506.03" speed="8.33" to="276807441" type="highway.residential"/>
    <edge from="286769264" id="-26188722" numLanes="1" priority="4" shape="645492.15,5493331.01 645505.01,5493325.43 645510.79,5493322.91 645535.78,5493312.28 645565.94,5493298.94 645590.96,5493288.08 645595.40,5493286.15 645613.36,5493278.35 645647.82,5493263.38 645705.65,5493239.09 645735.29,5493237.28" speed="13.89" to="286769261" type="highway.residential"/>
    <edge from="14319161" id="-28269598" numLanes="1" priority="6" shape="644634.15,5493019.98 644626.20,5492996.85 644613.41,5492957.86 644611.86,5492934.40 644608.33,5492834.83" speed="13.89" to="25300234" type="highway.tertiary"/>
    <edge from="267497324" id="-28269601" numLanes="1" priority="5" speed="22.22" to="26841332" type="highway.unclassified"/>
    <edge from="314448358" id="-28613727#0" numLanes="1" priority="5" shape="645164.80,5493111.00 645147.00,5493072.89 645131.59,5493039.86 645082.70,5492935.10" speed="22.22" to="314448307" type="highway.unclassified"/>
    <edge from="cluster_314448309_824235741" id="-28613727#1" numLanes="1" priority="5" shape="645255.96,5493306.32 645232.04,5493255.07 645201.97,5493190.64 645196.85,5493179.67 645188.74,5493162.29 645164.80,5493111.00" speed="22.22" to="314448358" type="highway.unclassified"/>
    <edge from="314448307" id="-28613734" numLanes="1" priority="5" shape="645082.70,5492935.10 644963.79,5492991.28 644855.11,5493042.63 644803.59,5493066.62 644793.32,5493079.35" speed="22.22" to="314448301" type="highway.unclassified"/>
    <edge from="314448409" id="-28613737" numLanes="1" priority="5" shape="644881.92,5493478.45 644865.44,5493486.51" speed="22.22" to="cluster_314448347_347349359" type="highway.unclassified"/>
    <edge from="314448320" id="-28631632" numLanes="1" priority="5" shape="644932.62,5493216.60 645047.34,5493164.02 645125.63,5493128.81 645164.80,5493111.00" speed="22.22" to="314448358" type="highway.unclassified"/>
    <edge from="75321428" id="-29900561#0" numLanes="1" priority="4" shape="646198.20,5493686.25 646223.02,5493690.08 646256.36,5493694.44 646295.03,5493699.58" speed="13.89" to="26841354" type="highway.residential"/>
    <edge from="17574082" id="-29900561#1" numLanes="1" priority="4" shape="646154.87,5493678.47 646170.25,5493681.39 646190.67,5493684.78 646198.20,5493686.25" speed="13.89" to="75321428" type="highway.residential"/>
    <edge from="26841355" id="-29900564#0" numLanes="1" priority="4" shape="646319.01,5493559.17 646313.62,5493583.33 646310.76,5493599.37 646307.67,5493616.81 646295.03,5493699.58" speed="8.33" to="26841354" type="highway.residential"/>
    <edge from="26841361" id="-29900564#1" numLanes="1" priority="4" shape="646338.23,5493449.84 646331.03,5493488.75 646326.25,5493513.50 646319.01,5493559.17" speed="8.33" to="26841355" type="highway.residential"/>
    <edge from="17574075" id="-29900564#2" numLanes="1" priority="4" speed="8.33" to="26841361" type="highway.residential"/>
    <edge from="349116359" id="-29900564#3" numLanes="1" priority="4" shape="646323.81,5493344.02 646329.09,5493367.24 646335.68,5493429.34" speed="8.33" to="17574075" type="highway.residential"/>
    <edge from="17574077" id="-29900564#4" numLanes="1" priority="4" speed="8.33" to="349116359" type="highway.residential"/>
    <edge from="17574078" id="-29900564#5" numLanes="1" priority="4" shape="646274.77,5493236.76 646306.71,5493294.12 646309.68,5493299.47 646316.42,5493311.57" speed="8.33" to="17574077" type="highway.residential"/>
    <edge from="17574073" id="-29900565#0" numLanes="1" priority="4" shape="646131.18,5493414.56 646159.87,5493371.84 646171.78,5493354.13 646195.38,5493327.24 646227.20,5493290.97 646253.31,5493261.22 646274.77,5493236.76" speed="8.33" to="17574078" type="highway.residential"/>
    <edge from="17574071" id="-29900565#1" numLanes="1" priority="4" speed="8.33" to="17574073" type="highway.residential"/>
    <edge from="26841360" id="-29900565#2" numLanes="1" priority="4" shape="646061.30,5493532.06 646066.72,5493518.00 646071.05,5493509.28 646085.62,5493484.11 646094.51,5493470.46" speed="8.33" to="17574071" type="highway.residential"/>
    <edge from="17574066" id="-29900565#3" numLanes="1" priority="4" shape="646026.07,5493656.70 646029.37,5493633.36 646037.47,5493592.91 646038.63,5493587.13 646061.30,5493532.06" speed="8.33" to="26841360" type="highway.residential"/>
    <edge from="349918192" id="-29900567" numLanes="1" priority="4" speed="8.33" to="17574091" type="highway.residential"/>
    <edge from="13493753" id="-3013106#0" numLanes="1" priority="6" shape="644955.88,5493749.87 644966.04,5493790.90 644976.98,5493872.52 644977.96,5493881.59 644985.28,5493963.56" speed="13.89" to="12247702" type="highway.tertiary"/>
    <edge from="19755460" id="-3013106#1" numLanes="1" priority="6" speed="13.89" to="13493753" type="highway.tertiary"/>
    <edge from="cluster_12247700_12529558" id="-3013106#2" numLanes="1" priority="6" shape="644906.71,5493608.62 644908.86,5493614.64 644940.58,5493706.73" speed="13.89" to="19755460" type="highway.tertiary"/>
    <edge from="13493753" id="-3013107" numLanes="1" priority="4" shape="644955.88,5493749.87 644917.08,5493759.42 644840.68,5493777.81 644776.57,5493790.02 644735.19,5493797.18 644704.14,5493804.11 644692.79,5493809.87" speed="8.33" to="14319137" type="highway.residential"/>
    <edge from="14319137" id="-3013109" numLanes="1" priority="4" shape="644692.79,5493809.87 644697.08,5493832.37 644714.52,5493916.72 644726.74,5493928.35 644745.05,5493935.38 644985.28,5493963.56" speed="8.33" to="12247702" type="highway.residential"/>
    <edge from="cluster_277566500_277567477" id="-30357194" numLanes="1" priority="6" shape="645715.11,5493595.36 645710.28,5493599.24 645678.36,5493629.42 645654.91,5493653.06 645645.99,5493662.06 645626.04,5493683.15 645527.11,5493787.72 645414.98,5493970.35 645392.78,5494007.78 645377.22,5494033.62" speed="13.89" to="20967403" type="highway.tertiary"/>
    <edge from="347349368" id="-31241816#0" numLanes="1" priority="5" speed="22.22" to="347349637" type="highway.unclassified"/>
    <edge from="cluster_347349857_347349858" id="-31241816#1" numLanes="1" priority="5" shape="644705.09,5493484.79 644654.22,5493508.30" speed="22.22" to="347349368" type="highway.unclassified"/>
    <edge from="347349445" id="-31241816#3" numLanes="1" priority="5" shape="644820.17,5493431.61 644710.38,5493482.35" speed="22.22" to="cluster_347349857_347349858" type="highway.unclassified"/>
    <edge from="347349856" id="-31241834#0" numLanes="1" priority="5" speed="22.22" to="347349707" type="highway.unclassified"/>
    <edge from="347349708" id="-31241834#1" numLanes="1" priority="5" speed="22.22" to="347349856" type="highway.unclassified"/>
    <edge from="347349445" id="-31241835#0" numLanes="1" priority="5" speed="22.22" to="347349709" type="highway.unclassified"/>
    <edge from="347349707" id="-31241835#1" numLanes="1" priority="5" speed="22.22" to="347349445" type="highway.unclassified"/>
    <edge from="347349874" id="-31241838#0" numLanes="1" priority="5" shape="644697.57,5493599.62 644701.25,5493607.38 644708.46,5493616.24 644712.67,5493617.86" speed="22.22" to="347349816" type="highway.unclassified"/>
    <edge from="347349368" id="-31241838#1" numLanes="1" priority="5" speed="22.22" to="347349874" type="highway.unclassified"/>
    <edge from="cluster_347349857_347349858" id="-31241848" numLanes="1" priority="5" shape="644705.09,5493484.79 644681.86,5493433.26" speed="22.22" to="347349856" type="highway.unclassified"/>
    <edge from="347595810" id="-31241851#0" numLanes="1" priority="5" shape="644738.60,5493539.42 644710.38,5493482.35" speed="22.22" to="cluster_347349857_347349858" type="highway.unclassified"/>
    <edge from="347349875" id="-31241851#1" numLanes="1" priority="5" speed="22.22" to="347595810" type="highway.unclassified"/>
    <edge from="347349864" id="-31241851#2" numLanes="1" priority="5" speed="22.22" to="347349875" type="highway.unclassified"/>
    <edge from="347349917" id="-31241853#0" numLanes="1" priority="5" speed="22.22" to="347349872" type="highway.unclassified"/>
    <edge from="347349874" id="-31241853#1" numLanes="1" priority="5" speed="22.22" to="347349917" type="highway.unclassified"/>
    <edge from="347349875" id="-31241853#2" numLanes="1" priority="5" speed="22.22" to="347349874" type="highway.unclassified"/>
    <edge from="347349637" id="-31241855#0" numLanes="1" priority="5" speed="22.22" to="347349708" type="highway.unclassified"/>
    <edge from="347349917" id="-31241855#1" numLanes="1" priority="5" speed="22.22" to="347349637" type="highway.unclassified"/>
    <edge from="347349864" id="-31255203#0" numLanes="1" priority="5" shape="644768.22,5493599.32 644814.78,5493577.76 644815.68,5493577.34 644852.71,5493560.19 644834.32,5493519.69 644832.19,5493509.60 644834.05,5493501.45 644853.72,5493493.49" speed="22.22" to="cluster_314448347_347349359" type="highway.unclassified"/>
    <edge from="347349816" id="-31255203#1" numLanes="1" priority="5" shape="644712.67,5493617.86 644717.07,5493619.56 644724.57,5493617.90 644768.22,5493599.32" speed="22.22" to="347349864" type="highway.unclassified"/>
    <edge from="347595866" id="-31261347" numLanes="1" priority="5" shape="644822.77,5493502.38 644758.03,5493530.87 644738.60,5493539.42" speed="22.22" to="347595810" type="highway.unclassified"/>
    <edge from="347788451" id="-31270441" numLanes="1" priority="4" shape="645729.46,5493080.30 645734.82,5493074.03 645742.01,5493073.24 645747.02,5493080.28 645745.30,5493088.87 645730.62,5493102.10" speed="13.89" to="347788385" type="highway.residential"/>
    <edge from="17574105" id="-31353573#0" numLanes="1" priority="6" shape="645799.03,5493783.93 645789.76,5493736.56 645780.87,5493691.13 645778.36,5493678.33 645770.97,5493652.92" speed="13.89" to="348243041" type="highway.tertiary"/>
    <edge from="19755421" id="-31353573#1" numLanes="1" priority="6" shape="645833.42,5494081.29 645826.08,5494010.53 645818.88,5493946.07 645812.29,5493889.01 645811.53,5493880.23 645803.77,5493815.63 645803.25,5493811.90 645802.17,5493805.68 645800.20,5493792.65 645799.03,5493783.93" speed="13.89" to="17574105" type="highway.tertiary"/>
    <edge from="26841336" id="-31401017#0" numLanes="1" priority="4" shape="646545.23,5493724.30 646514.36,5493780.59 646502.11,5493813.71" speed="8.33" to="349918192" type="highway.residential"/>
    <edge from="26841359" id="-31401017#1" numLanes="1" priority="4" shape="646614.98,5493604.11 646596.20,5493637.59 646574.04,5493675.30 646545.23,5493724.30" speed="8.33" to="26841336" type="highway.residential"/>
    <edge from="276807441" id="-31401017#2" numLanes="1" priority="4" speed="8.33" to="26841359" type="highway.residential"/>
    <edge from="17574091" id="-31401018" numLanes="1" priority="4" speed="8.33" to="349918194" type="highway.residential"/>
    <edge from="354910587" id="-31720632#0" numLanes="1" priority="4" shape="644879.05,5492671.94 644879.16,5492700.85 644877.12,5492747.35" speed="13.89" to="19769116" type="highway.residential"/>
    <edge from="354910582" id="-31720632#1" numLanes="1" priority="4" shape="644897.81,5492571.58 644893.84,5492585.11 644887.43,5492599.03 644878.49,5492620.59 644878.57,5492634.29 644879.05,5492671.94" speed="13.89" to="354910587" type="highway.residential"/>
    <edge from="354910591" id="-31720633" numLanes="1" priority="4" speed="13.89" to="354910587" type="highway.residential"/>
    <edge from="347788385" id="-31777493#0" numLanes="1" priority="4" speed="8.33" to="347788451" type="highway.residential"/>
    <edge from="21970042" id="-31777493#1" numLanes="1" priority="4" speed="8.33" to="347788385" type="highway.residential"/>
    <edge from="17574093" id="-32270592#0" numLanes="1" priority="4" shape="646414.47,5494094.29 646402.04,5494094.57 646363.28,5494095.74" speed="8.33" to="362740744" type="highway.residential"/>
    <edge from="17574092" id="-32270592#1" numLanes="1" priority="4" shape="646504.16,5494090.14 646498.21,5494090.42 646414.47,5494094.29" speed="8.33" to="17574093" type="highway.residential"/>
    <edge from="362740744" id="-32270593" numLanes="1" priority="4" shape="646363.28,5494095.74 646329.98,5494096.38 646325.80,5494096.48" speed="8.33" to="17574094" type="highway.residential"/>
    <edge from="17574066" id="-32270595" numLanes="1" priority="4" shape="646026.07,5493656.70 646058.12,5493661.97 646070.05,5493664.20 646084.81,5493666.71 646136.01,5493675.42 646154.87,5493678.47" speed="13.89" to="17574082" type="highway.residential"/>
    <edge from="332234285" id="-32271499" numLanes="1" priority="6" shape="645835.66,5494103.88 645838.08,5494131.63 645839.10,5494170.85" speed="13.89" to="21968161" type="highway.tertiary"/>
    <edge from="20967403" id="-32282774" numLanes="1" priority="6" shape="645377.22,5494033.62 645362.67,5494058.54 645303.56,5494158.58 645208.60,5494319.10" speed="13.89" to="16933967" type="highway.tertiary"/>
    <edge from="21113162" id="-32302591#0" numLanes="1" priority="6" shape="646039.62,5494049.78 646039.90,5494093.41 646039.88,5494109.30" speed="13.89" to="cluster_17574058_411035708_411035715" type="highway.tertiary"/>
    <edge from="17574059" id="-32302591#1" numLanes="1" priority="6" speed="13.89" to="21113162" type="highway.tertiary"/>
    <edge from="17574060" id="-32302591#2" numLanes="1" priority="6" speed="13.89" to="17574059" type="highway.tertiary"/>
    <edge from="17574064" id="-32302591#3" numLanes="1" priority="6" speed="13.89" to="17574060" type="highway.tertiary"/>
    <edge from="17574061" id="-32302591#4" numLanes="1" priority="6" speed="13.89" to="17574064" type="highway.tertiary"/>
    <edge from="17574066" id="-32302591#5" numLanes="1" priority="6" shape="646026.07,5493656.70 646026.97,5493717.30 646027.55,5493731.20 646028.79,5493790.55" speed="13.89" to="17574061" type="highway.tertiary"/>
    <edge from="12452110" id="-32320329" numLanes="1" priority="6" shape="647063.88,5494795.98 647063.93,5494792.78 647064.46,5494790.17 647060.14,5494719.44 647046.51,5494571.63 647024.79,5494379.42 647021.93,5494351.51 646998.47,5494122.81 646997.41,5494104.79" speed="16.67" to="26841333" type="highway.tertiary"/>
    <edge from="366720044" id="-32611578" numLanes="1" priority="4" shape="644583.94,5493029.00 644586.71,5493115.87 644585.91,5493129.69 644560.24,5493148.90" speed="13.89" to="366720034" type="highway.residential"/>
    <edge from="17574067" id="-33174302#0" numLanes="1" priority="6" shape="645887.38,5493651.08 645917.04,5493651.24 645976.63,5493653.15 645994.27,5493654.26 646026.07,5493656.70" speed="13.89" to="17574066" type="highway.tertiary"/>
    <edge from="348243041" id="-33174302#1" numLanes="1" priority="6" shape="645770.97,5493652.92 645793.65,5493651.72 645852.35,5493651.40 645866.24,5493651.14 645887.38,5493651.08" speed="13.89" to="17574067" type="highway.tertiary"/>
    <edge from="286769261" id="-35842306#0" numLanes="1" priority="4" speed="13.89" to="21970042" type="highway.residential"/>
    <edge from="21317522" id="-35842306#1" numLanes="1" priority="4" speed="13.89" to="286769261" type="highway.residential"/>
    <edge from="26841333" id="-37591481" numLanes="1" priority="5" shape="646997.41,5494104.79 646987.67,5494104.71 646920.27,5494105.40 646774.52,5494108.78" speed="22.22" to="267497324" type="highway.unclassified"/>
    <edge from="1316826203" id="-39539626" numLanes="1" priority="4" shape="646858.97,5493242.24 646848.58,5493238.43 646784.31,5493173.33 646776.99,5493163.93 646774.97,5493151.78" speed="13.89" to="1154372516" type="highway.residential"/>
    <edge from="16933971" id="-3998612#0" numLanes="1" priority="4" shape="645350.31,5494008.39 645364.39,5494022.82 645369.36,5494027.91 645377.22,5494033.62" speed="13.89" to="20967403" type="highway.residential"/>
    <edge from="17573721" id="-3998612#1" numLanes="1" priority="4" shape="645179.37,5493983.94 645273.60,5493986.23 645291.48,5493988.14 645310.51,5493989.85 645317.49,5493990.25 645324.80,5493992.32 645339.82,5493998.25 645350.31,5494008.39" speed="13.89" to="16933971" type="highway.residential"/>
    <edge from="12247702" id="-3998612#2" numLanes="1" priority="4" shape="644985.28,5493963.56 645031.94,5493972.71 645085.79,5493979.05 645094.14,5493980.03 645121.96,5493983.31 645179.37,5493983.94" speed="13.89" to="17573721" type="highway.residential"/>
    <edge from="15420062" id="-3998613#0" numLanes="1" priority="4" shape="645494.51,5494088.01 645389.40,5494042.62 645386.94,5494041.31 645377.22,5494033.62" speed="13.89" to="20967403" type="highway.residential"/>
    <edge from="21968159" id="-3998613#1" numLanes="1" priority="4" shape="645601.83,5494087.11 645580.34,5494088.15 645573.71,5494088.47 645563.79,5494089.03 645527.86,5494090.70 645514.11,5494089.59 645494.51,5494088.01" speed="13.89" to="15420062" type="highway.residential"/>
    <edge from="19755421" id="-3998613#2" numLanes="1" priority="4" shape="645833.42,5494081.29 645648.34,5494083.78 645626.45,5494085.47 645601.83,5494087.11" speed="13.89" to="21968159" type="highway.residential"/>
    <edge from="19755463" id="-3998615#0" numLanes="1" priority="4" shape="645048.70,5493656.04 645024.99,5493667.76 644967.00,5493691.69 644960.95,5493694.70 644940.58,5493706.73" speed="13.89" to="19755460" type="highway.residential"/>
    <edge from="19755457" id="-3998615#1" numLanes="1" priority="4" shape="645157.93,5493634.19 645122.47,5493641.29 645081.15,5493649.55 645048.70,5493656.04" speed="13.89" to="19755463" type="highway.residential"/>
    <edge from="21969082" id="-3998615#2" numLanes="1" priority="4" shape="645348.46,5493613.89 645283.28,5493613.39 645270.19,5493614.75 645247.83,5493617.07 645235.40,5493619.44 645157.93,5493634.19" speed="13.89" to="19755457" type="highway.residential"/>
    <edge from="16933976" id="-3998615#3" numLanes="1" priority="4" shape="645502.43,5493637.20 645431.95,5493626.02 645391.77,5493619.39 645382.41,5493618.20 645348.46,5493613.89" speed="13.89" to="21969082" type="highway.residential"/>
    <edge from="19755454" id="-3998643#0" numLanes="1" priority="4" shape="645184.62,5493843.54 645183.74,5493867.80 645183.06,5493893.16 645182.73,5493905.53 645181.25,5493937.69 645180.85,5493952.54 645179.37,5493983.94" speed="13.89" to="17573721" type="highway.residential"/>
    <edge from="19755457" id="-3998643#1" numLanes="1" priority="4" shape="645157.93,5493634.19 645164.93,5493661.83 645173.64,5493696.20 645183.45,5493734.91 645183.81,5493767.65 645183.39,5493822.76 645184.62,5493843.54" speed="13.89" to="19755454" type="highway.residential"/>
    <edge from="15159498" id="-3998643#2" numLanes="1" priority="4" shape="645133.24,5493524.30 645134.68,5493531.09 645157.93,5493634.19" speed="13.89" to="19755457" type="highway.residential"/>
    <edge from="16933972" id="-3998645#0" numLanes="1" priority="4" shape="645366.30,5493875.63 645360.50,5493918.95 645358.81,5493933.78 645350.31,5494008.39" speed="13.89" to="16933971" type="highway.residential"/>
    <edge from="16933976" id="-3998645#1" numLanes="1" priority="4" shape="645502.43,5493637.20 645496.92,5493657.49 645479.58,5493701.59 645477.35,5493706.11 645472.04,5493716.52 645460.34,5493739.60 645451.21,5493759.02 645424.44,5493808.58 645405.74,5493847.48 645397.90,5493864.46 645378.69,5493876.58 645366.30,5493875.63" speed="13.89" to="16933972" type="highway.residential"/>
    <edge from="1391319738" id="-3998645#2" numLanes="1" priority="4" shape="645523.34,5493480.70 645523.11,5493486.76 645521.92,5493517.62 645518.79,5493545.57 645515.07,5493563.86 645509.00,5493599.83 645508.42,5493603.26 645502.43,5493637.20" speed="13.89" to="16933976" type="highway.residential"/>
    <edge from="15420060" id="-3998653" numLanes="1" priority="4" shape="645505.33,5494354.44 645499.79,5494265.20 645495.15,5494185.58 645492.48,5494131.65 645492.21,5494123.80 645494.51,5494088.01" speed="13.89" to="15420062" type="highway.residential"/>
    <edge from="411797709" id="-4006668" numLanes="1" priority="6" speed="16.67" to="12452103" type="highway.tertiary"/>
    <edge from="17574094" id="-4006672" numLanes="1" priority="4" shape="646325.80,5494096.48 646238.91,5494100.77 646179.72,5494103.69 646039.88,5494109.30" speed="8.33" to="cluster_17574058_411035708_411035715" type="highway.residential"/>
    <edge from="21113161" id="-4006674#0" numLanes="1" priority="4" speed="8.33" to="17574094" type="highway.residential"/>
    <edge from="17574097" id="-4006674#1" numLanes="1" priority="4" speed="8.33" to="21113161" type="highway.residential"/>
    <edge from="17574098" id="-4006674#2" numLanes="1" priority="4" speed="8.33" to="17574097" type="highway.residential"/>
    <edge from="17574088" id="-4006674#3" numLanes="1" priority="4" speed="8.33" to="17574098" type="highway.residential"/>
    <edge from="17574086" id="-4006674#4" numLanes="1" priority="4" speed="8.33" to="17574088" type="highway.residential"/>
    <edge from="17574093" id="-4006675" numLanes="1" priority="4" shape="646414.47,5494094.29 646401.64,5493970.97 646402.06,5493896.83 646407.73,5493838.30" speed="8.33" to="17574090" type="highway.residential"/>
    <edge from="17574062" id="-4006676" numLanes="1" priority="4" speed="13.89" to="17574064" type="highway.residential"/>
    <edge from="21113161" id="-4006682" numLanes="1" priority="4" shape="646324.36,5494040.20 646179.74,5494044.52 646039.62,5494049.78" speed="8.33" to="21113162" type="highway.residential"/>
    <edge from="17574097" id="-4006683" numLanes="1" priority="4" shape="646318.41,5493980.10 646177.83,5493986.10 646038.60,5493989.29" speed="8.33" to="17574059" type="highway.residential"/>
    <edge from="17574060" id="-4006684" numLanes="1" priority="4" shape="646036.31,5493921.71 646175.94,5493915.99 646239.34,5493916.43 646307.69,5493920.80" speed="8.33" to="17574098" type="highway.residential"/>
    <edge from="17574082" id="-4006687" numLanes="1" priority="4" shape="646154.87,5493678.47 646152.54,5493694.48 646149.27,5493722.17 646147.08,5493745.15 646176.14,5493751.34 646212.05,5493757.50 646246.13,5493763.97 646285.85,5493771.27" speed="13.89" to="17574086" type="highway.residential"/>
    <edge from="95087508" id="-4006688#0" numLanes="1" priority="4" speed="13.89" to="26841336" type="highway.residential"/>
    <edge from="89119484" id="-4006688#1" numLanes="1" priority="4" speed="13.89" to="95087508" type="highway.residential"/>
    <edge from="95087515" id="-4006688#2" numLanes="1" priority="4" speed="13.89" to="89119484" type="highway.residential"/>