<?xml version="1.0" encoding="UTF-8"?>

<!-- generated on Sun Feb 15 13:39:59 2015 by SUMO duarouter Version 0.22.0
<?xml version="1.0" encoding="UTF-8"?>

<configuration xmlns:xsi="http://www.w3.org/2001/XMLSchema-instance" xsi:noNamespaceSchemaLocation="http://sumo.dlr.de/xsd/duarouterConfiguration.xsd">

    <input>
        <net-file value="/home/hendrik/CEC/ITSCmap/trafficmodeler/gen5/erlangen.net.xml"/>
        <trip-files value="/home/hendrik/CEC/ITSCmap/trafficmodeler/gen5/sim.generated-trips.xml"/>
    </input>

    <output>
        <output-file value="/home/hendrik/CEC/ITSCmap/trafficmodeler/gen5/erlangen.rou.xml"/>
    </output>

    <processing>
        <ignore-errors value="true"/>
        <repair value="true"/>
    </processing>

    <defaults>
        <departlane value="best"/>
        <departpos value="random_free"/>
        <departspeed value="max"/>
    </defaults>

    <time>
        <begin value="0"/>
        <end value="540"/>
    </time>

    <random_number>
        <seed value="1000"/>
    </random_number>

</configuration>
-->

<routes xmlns:xsi="http://www.w3.org/2001/XMLSchema-instance" xsi:noNamespaceSchemaLocation="http://sumo.dlr.de/xsd/routes_file.xsd">
    <vType id="Default" length="5.00" maxSpeed="70.00">
        <carFollowing-Krauss accel="2.60" decel="4.50" sigma="0.50"/>
    </vType>
    <vehicle id="Area Flow 32-341" type="Default" depart="1.00" departLane="best" departPos="random_free" departSpeed="max" color="141,219,99">
        <route edges="113939241 -113939241 113939244#0 113939244#1 113939244#2 -126606716 23339459 30405358#1 85355912 85355911#0 25472101 30405352 19796637 122161390 -30357194 3998612#0"/>
    </vehicle>
    <vehicle id="Area Flow 31-31" type="Default" depart="3.00" departLane="best" departPos="random_free" departSpeed="max" color="78,201,155">
        <route edges="-10573414#1 4047378 4006724#1 4872369 4006725#1 -3998612#0 30357194 25472299 30350448 30350449 25472079 30405352 30350445 -33174302#1 -33174302#0 -32270595 8402997 8402998#1 8402998#2 29900564#1 8403007 23605595 -23605595"/>
    </vehicle>
    <vehicle id="Area Flow 32-72" type="Default" depart="3.00" departLane="best" departPos="random_free" departSpeed="max" color="141,219,99">
        <route edges="-4900739#0 4900739#0 4900739#1 4900739#2 4900741 35842306#0 35842306#1 4047446#0 4047446#1 5931612 30350450#0 30350450#1 30350450#2 4006702#0 4006702#1 4006702#2 -28269598 -4006703#1 4006705#1"/>
    </vehicle>
    <vehicle id="Area Flow 31-225" type="Default" depart="5.00" departLane="best" departPos="random_free" departSpeed="max" color="78,201,155">
        <route edges="3013106#2 4319352#1 44069041#0 44069041#1 25472079 30405352 30350445 -33174302#1 -33174302#0 -32270595 -29900561#1 -29900561#0 -4006688#4 -4006688#3 -4006688#2 -4006688#1 -4006688#0 31401017#1 31401017#2"/>
    </vehicle>
    <vehicle id="Area Flow 32-2" type="Default" depart="5.00" departLane="best" departPos="random_free" departSpeed="max" color="141,219,99">
        <route edges="25472101 30405352 19796637 122161390 -30357194 3998612#0 -4006725#1 -4872369 4006724#2"/>
    </vehicle>
    <vehicle id="Area Flow 32-319" type="Default" depart="5.00" departLane="best" departPos="random_free" departSpeed="max" color="141,219,99">
        <route edges="-4006676 32302591#4 32302591#5 33174302#0 33174302#1 4686970#0 4686970#1 122161381 30350448 8364476 30350450#0 30350450#1 30350450#2 4006702#0 28613737 94344941 94344940#0 -94344940#0"/>
    </vehicle>
    <vehicle id="Area Flow 31-99" type="Default" depart="6.00" departLane="best" departPos="random_free" departSpeed="max" color="78,201,155">
        <route edges="31241855#0 31241816#0 31241816#1 31241851#0 31241851#1 31241851#2 -31255203#0 -4006702#0 4319352#1 44069041#0 44069041#1 4400949 31982182#0 4047241 4797872 4797871"/>
    </vehicle>
    <vehicle id="Area Flow 32-193" type="Default" depart="7.00" departLane="best" departPos="random_free" departSpeed="max" color="141,219,99">
        <route edges="-29900564#0 29900561#0 29900561#1 32270595 33174302#0 33174302#1 4686970#0 4686970#1 122161381 30350448 8364476 30350450#0 30350450#1 30350450#2 4006702#0 4006702#1 4006702#2 -23805514#1 -23805514#0"/>
    </vehicle>
    <vehicle id="Area Flow 32-59" type="Default" depart="7.00" departLane="best" departPos="random_free" departSpeed="max" color="141,219,99">
        <route edges="4006674#3 4006674#4 8403001 29900561#0 29900561#1 32270595 33174302#0 33174302#1 4686970#0 4686970#1 122161381 30350448 8364476 30350450#0 30350450#1 30350450#2 4006702#0 4006702#1 4006702#2 -23805514#1 23805514#1"/>
    </vehicle>
    <vehicle id="Area Flow 31-33" type="Default" depart="9.00" departLane="best" departPos="random_free" departSpeed="max" color="78,201,155">
        <route edges="-3998612#2 -3998612#1 -3998612#0 30357194 25472299 30350448 30350449 25472079 30405352 30350445 -33174302#1 -33174302#0 -29900565#3 -29900565#2 -29900565#1 -29900565#0 -4006690 -4006693#4 -4006693#3"/>
    </vehicle>
    <vehicle id="Area Flow 31-84" type="Default" depart="13.00" departLane="best" departPos="random_free" departSpeed="max" color="78,201,155">
        <route edges="-28613737 -4006702#0 4319352#1 44069041#0 44069041#1 4400949 31982182#0 4047241 4797872 4797871 4006668 126606716 113939242#0 5445204#1 5445204#2 5445204#3"/>
    </vehicle>
    <vehicle id="Area Flow 31-90" type="Default" depart="13.00" departLane="best" departPos="random_free" departSpeed="max" color="78,201,155">
        <route edges="-3998615#2 3998643#2 30350450#2 4319352#1 44069041#0 44069041#1 25472079 30405352 30350445 -33174302#1 -33174302#0 -32270595 8402997 8402998#1 8402998#2 8402998#3"/>
    </vehicle>
    <vehicle id="Area Flow 32-315" type="Default" depart="13.00" departLane="best" departPos="random_free" departSpeed="max" color="141,219,99">
        <route edges="-4006688#4 4006688#4 29900561#0 29900561#1 32270595 33174302#0 33174302#1 4686970#0 4686970#1 122161381 30350448 8364476 30350450#0 30350450#1 30350450#2 4006702#0 4006702#1 4900043 4900041#1 -23350929"/>
    </vehicle>
    <vehicle id="Area Flow 32-136" type="Default" depart="14.00" departLane="best" departPos="random_free" departSpeed="max" color="141,219,99">
        <route edges="-10425128#1 10425128#1 -29900564#3 -29900564#2 -29900564#1 -8402998#2 -8402998#1 -8402997 32270595 33174302#0 33174302#1 4686970#0 4686970#1 122161381 30350448 8364476 30350450#0 30350450#1 30350450#2 4006702#0 31255203#0 -31241851#2 -31241851#1 -31241851#0 -31241816#1 -31241816#0 31241855#1"/>
    </vehicle>
    <vehicle id="Area Flow 32-172" type="Default" depart="15.00" departLane="best" departPos="random_free" departSpeed="max" color="141,219,99">
        <route edges="35842306#1 4047446#0 4047446#1 5931612 30350450#0 30350450#1 30350450#2 4006702#0 28613737 94344941 94344940#0 67076129 -67076129"/>
    </vehicle>
    <vehicle id="Area Flow 32-217" type="Default" depart="16.00" departLane="best" departPos="random_free" departSpeed="max" color="141,219,99">
        <route edges="31401017#1 -31401017#1 4006688#0 4006688#1 4006688#2 4006688#3 4006688#4 29900561#0 29900561#1 32270595 33174302#0 33174302#1 4686970#0 4686970#1 122161381 30350448 8364476 30350450#0 30350450#1 30350450#2 4006702#0 28613737 -28613737"/>
    </vehicle>
    <vehicle id="Area Flow 32-221" type="Default" depart="16.00" departLane="best" departPos="random_free" departSpeed="max" color="141,219,99">
        <route edges="4006674#1 4006674#2 4006674#3 4006674#4 8403001 29900561#0 29900561#1 32270595 33174302#0 33174302#1 4686970#0 4686970#1 122161381 30350448 8364476 30350450#0 30350450#1 30350450#2 4006702#0 4006702#1 4006702#2 -28269598 -4006703#1 4006705#1 4006705#2 31720632#0"/>
    </vehicle>
    <vehicle id="Area Flow 32-292" type="Default" depart="17.00" departLane="best" departPos="random_free" departSpeed="max" color="141,219,99">
        <route edges="126606716 -126606716 23339459 30405358#1 85355912 85355911#0 85355911#1 30405356 5931612 30350450#0 30350450#1 30350450#2 4006702#0 31255203#0 -31241851#2 -31241851#1 31241851#1"/>
    </vehicle>
    <vehicle id="Area Flow 32-83" type="Default" depart="17.00" departLane="best" departPos="random_free" departSpeed="max" color="141,219,99">
        <route edges="-29900565#2 29900565#2 29900565#3 33174302#0 33174302#1 4686970#0 4686970#1 122161381 30350448 8364476 30350450#0 -3998645#2 -3998645#1 -4006726#2 -4006726#1"/>
    </vehicle>
    <vehicle id="Area Flow 32-278" type="Default" depart="18.00" departLane="best" departPos="random_free" departSpeed="max" color="141,219,99">
        <route edges="-4006693#1 -23605595 -8403007 -29900564#1 -8402998#2 -8402998#1 -8402997 32270595 33174302#0 33174302#1 4686970#0 4686970#1 122161381 30350448 8364476 30350450#0 30350450#1 -3998643#2"/>
    </vehicle>
    <vehicle id="Area Flow 31-281" type="Default" depart="19.00" departLane="best" departPos="random_free" departSpeed="max" color="78,201,155">
        <route edges="31241851#1 31241851#2 -31255203#0 -4006702#0 4319352#1 44069041#0 44069041#1 25472079 30405352 30350445 -33174302#1 -33174302#0 -32270595 8402997 8402998#1 8402998#2 29900564#1 29900564#2 29900564#3 29900564#4 4006694"/>
    </vehicle>
    <vehicle id="Area Flow 31-217" type="Default" depart="20.00" departLane="best" departPos="random_free" departSpeed="max" color="78,201,155">
        <route edges="30350450#1 30350450#2 4319352#1 44069041#0 44069041#1 25472079 30405352 30350445 -33174302#1 -33174302#0 -29900565#3 -29900565#2 -29900565#1 4006691"/>
    </vehicle>
    <vehicle id="Area Flow 32-205" type="Default" depart="20.00" departLane="best" departPos="random_free" departSpeed="max" color="141,219,99">
        <route edges="23360299 -5445204#1 113939244#2 -126606716 23339459 30405358#1 85355912 85355911#0 85355911#1 30405356 5931612 30350450#0 30350450#1 30350450#2 4006702#0 31255203#0 -31241851#2 -31241851#1 -31241851#0 -31241848 -31241834#0"/>
    </vehicle>
    <vehicle id="Area Flow 31-135" type="Default" depart="21.00" departLane="best" departPos="random_free" departSpeed="max" color="78,201,155">
        <route edges="-3998643#2 3998643#2 30350450#2 4319352#1 44069041#0 44069041#1 4400949 31982182#0 4047241 4797872 4797871 4006668 126606716 113939242#0 5445204#1 5445204#2 5445204#3 -5445204#3"/>
    </vehicle>
    <vehicle id="Area Flow 31-298" type="Default" depart="22.00" departLane="best" departPos="random_free" departSpeed="max" color="78,201,155">
        <route edges="-31241838#1 -31241838#0 -31255203#1 -31255203#0 -4006702#0 4319352#1 44069041#0 44069041#1 25472079 30405352 30350445 -33174302#1 -33174302#0 -32270595 8402997 8402998#1 8402998#2 29900564#1 29900564#2 29900564#3 -10425128#1 -10425128#0"/>
    </vehicle>
    <vehicle id="Area Flow 31-6" type="Default" depart="22.00" departLane="best" departPos="random_free" departSpeed="max" color="78,201,155">
        <route edges="-31241851#2 31241851#2 -31255203#0 -4006702#0 4319352#1 44069041#0 44069041#1 25472079 30405352 30350445 -33174302#1 -33174302#0 -32270595 -29900561#1 -29900561#0 -4006688#4 -4006688#3 -4006688#2 -4006688#1 -4006688#0 31401017#1 31401017#2 4006693#0"/>
    </vehicle>
    <vehicle id="Area Flow 31-251" type="Default" depart="24.00" departLane="best" departPos="random_free" departSpeed="max" color="78,201,155">
        <route edges="-3998615#1 -3998615#0 3013106#2 4319352#1 44069041#0 44069041#1 25472079 30405352 30350445 -33174302#1 -33174302#0 -32270595 8402997 8402998#1 8402998#2 29900564#1 29900564#2 -29900564#2"/>
    </vehicle>
    <vehicle id="Area Flow 32-280" type="Default" depart="24.00" departLane="best" departPos="random_free" departSpeed="max" color="141,219,99">
        <route edges="31270441 31777493#0 31777493#1 35842306#0 35842306#1 4047446#0 4047446#1 5931612 30350450#0 -3998645#2 -3998615#3 3998615#3"/>
    </vehicle>
    <vehicle id="Area Flow 32-318" type="Default" depart="25.00" departLane="best" departPos="random_free" departSpeed="max" color="141,219,99">
        <route edges="30350445 4686970#0 4686970#1 122161381 30350448 8364476 30350450#0 30350450#1 30350450#2 4006702#0 31255203#0 -31241851#2 -31241853#2 31241838#1"/>
    </vehicle>
    <vehicle id="Area Flow 32-125" type="Default" depart="26.00" departLane="best" departPos="random_free" departSpeed="max" color="141,219,99">
        <route edges="-5445204#3 -5445204#2 -5445204#1 113939244#2 -126606716 23339459 30405358#1 85355912 85355911#0 85355911#1 30405356 5931612 30350450#0 30350450#1 30350450#2 4006702#0 31255203#0 -31241851#2 -31241851#1 31241851#1"/>
    </vehicle>
    <vehicle id="Area Flow 32-158" type="Default" depart="26.00" departLane="best" departPos="random_free" departSpeed="max" color="141,219,99">
        <route edges="5445204#3 -5445204#3 -5445204#2 -5445204#1 113939244#2 -126606716 23339459 30405358#1 85355912 85355911#0 85355911#1 30405356 5931612 30350450#0 30350450#1 30350450#2 4006702#0 31255203#0 -31241851#2 -31241851#1 31261347 -31261347"/>
    </vehicle>
    <vehicle id="Area Flow 32-54" type="Default" depart="26.00" departLane="best" departPos="random_free" departSpeed="max" color="141,219,99">
        <route edges="-5558 4006690 29900565#0 29900565#1 29900565#2 29900565#3 33174302#0 33174302#1 4686970#0 4686970#1 122161381 30350448 8364476 30350450#0 30350450#1 30350450#2 4006702#0 4006702#1 4006702#2 -23805514#1 23805514#1"/>
    </vehicle>
    <vehicle id="Area Flow 32-346" type="Default" depart="27.00" departLane="best" departPos="random_free" departSpeed="max" color="141,219,99">
        <route edges="-4006675 -23605600#1 4006674#4 8403001 29900561#0 29900561#1 32270595 33174302#0 33174302#1 4686970#0 4686970#1 122161381 30350448 8364476 30350450#0 30350450#1 -3998643#2 -3998615#1 -3998615#0"/>
    </vehicle>
    <vehicle id="Area Flow 31-128" type="Default" depart="28.00" departLane="best" departPos="random_free" departSpeed="max" color="78,201,155">
        <route edges="-3013106#2 3013106#2 4319352#1 44069041#0 44069041#1 25472079 30405352 30350445 -33174302#1 -33174302#0 -32270595 8402997 8402998#1 8402998#2 29900564#1 8403007 23605595 4006693#1"/>
    </vehicle>
    <vehicle id="Area Flow 31-107" type="Default" depart="29.00" departLane="best" departPos="random_free" departSpeed="max" color="78,201,155">
        <route edges="31255203#0 -31255203#0 -4006702#0 4319352#1 44069041#0 44069041#1 4400949 31982182#0 4047241 4797872 4797871 4006668 126606716 113939242#0 5445204#1 -23360299"/>
    </vehicle>
    <vehicle id="Area Flow 31-186" type="Default" depart="29.00" departLane="best" departPos="random_free" departSpeed="max" color="78,201,155">
        <route edges="31241838#1 31241816#1 31241851#0 31241851#1 31241851#2 -31255203#0 -4006702#0 4319352#1 44069041#0 44069041#1 25472079 30405352 30350445 -33174302#1 -33174302#0 -32270595 8402997 8402998#1 -9643180"/>
    </vehicle>
    <vehicle id="Area Flow 31-253" type="Default" depart="31.00" departLane="best" departPos="random_free" departSpeed="max" color="78,201,155">
        <route edges="-31241851#2 31241851#2 -31255203#0 -4006702#0 4319352#1 44069041#0 44069041#1 4400949 31982182#0 4047241 4797872 4797871 4006668 126606716 113939242#0 5445204#1 5445204#2 39539626 -39539626"/>
    </vehicle>
    <vehicle id="Area Flow 32-185" type="Default" depart="32.00" departLane="best" departPos="random_free" departSpeed="max" color="141,219,99">
        <route edges="4006682 4006674#1 4006674#2 4006674#3 4006674#4 8403001 29900561#0 29900561#1 32270595 33174302#0 33174302#1 4686970#0 4686970#1 122161381 30350448 8364476 30350450#0 30350450#1 -3998643#2 -3998615#1"/>
    </vehicle>
    <vehicle id="Area Flow 32-327" type="Default" depart="33.00" departLane="best" departPos="random_free" departSpeed="max" color="141,219,99">
        <route edges="-8403007 -29900564#1 -8402998#2 -8402998#1 -8402997 32270595 33174302#0 33174302#1 4686970#0 25472257 -30357194 3998612#0 -4006725#1 -4006725#0 4006725#0"/>
    </vehicle>
    <vehicle id="Area Flow 31-108" type="Default" depart="34.00" departLane="best" departPos="random_free" departSpeed="max" color="78,201,155">
        <route edges="-4006702#0 4319352#1 44069041#0 44069041#1 4400949 31982182#0 4047241 4797872 4797871 4006668 126606716 113939242#0 113939242#1"/>
    </vehicle>
    <vehicle id="Area Flow 32-1" type="Default" depart="34.00" departLane="best" departPos="random_free" departSpeed="max" color="141,219,99">
        <route edges="-32302591#3 32302591#3 32302591#4 32302591#5 33174302#0 33174302#1 4686970#0 4686970#1 122161381 30350448 8364476 30350450#0 30350450#1 30350450#2 -3013106#2 -3013106#1 -3013107 -3013109"/>
    </vehicle>
    <vehicle id="Area Flow 31-74" type="Default" depart="35.00" departLane="best" departPos="random_free" departSpeed="max" color="78,201,155">
        <route edges="-31241851#1 31241851#1 31241851#2 -31255203#0 -4006702#0 4319352#1 44069041#0 44069041#1 4400949 31982182#0 31982182#1"/>
    </vehicle>
    <vehicle id="Area Flow 32-121" type="Default" depart="39.00" departLane="best" departPos="random_free" departSpeed="max" color="141,219,99">
        <route edges="-4006676 32302591#4 32302591#5 33174302#0 33174302#1 4686970#0 4686970#1 122161381 30350448 8364476 30350450#0 30350450#1 30350450#2 4006702#0 28613737 94344941 94344940#0 94344940#2"/>
    </vehicle>
    <vehicle id="Area Flow 32-270" type="Default" depart="39.00" departLane="best" departPos="random_free" departSpeed="max" color="141,219,99">
        <route edges="8402998#2 -8402998#2 -8402998#1 -8402997 32270595 33174302#0 33174302#1 4686970#0 4686970#1 122161381 30350448 8364476 30350450#0 -3998645#2 -3998645#1 -4006726#2 -4006726#1 -4006726#0"/>
    </vehicle>
    <vehicle id="Area Flow 32-279" type="Default" depart="39.00" departLane="best" departPos="random_free" departSpeed="max" color="141,219,99">
        <route edges="25472299 30350448 30350449 25472079 30405352 19796637 122161390 -30357194 3998612#0 -4006725#1 -4006725#0 4006725#0"/>
    </vehicle>
    <vehicle id="Area Flow 31-291" type="Default" depart="41.00" departLane="best" departPos="random_free" departSpeed="max" color="78,201,155">
        <route edges="-3013106#2 3013106#2 4319352#1 44069041#0 44069041#1 25472079 30405352 30350445 -33174302#1 -33174302#0 -32270595 8402997 8402998#1 8402998#2 29900564#1 29900564#2 29900564#3 -10425128#1 10425128#1"/>
    </vehicle>
    <vehicle id="Area Flow 32-65" type="Default" depart="41.00" departLane="best" departPos="random_free" departSpeed="max" color="141,219,99">
        <route edges="4006693#4 4006690 29900565#0 29900565#1 29900565#2 29900565#3 33174302#0 33174302#1 4686970#0 25472257 -30357194 3998612#0 -4006725#1 -4872369 -4006724#1 -4006724#0 4006724#0"/>
    </vehicle>
    <vehicle id="Area Flow 31-129" type="Default" depart="42.00" departLane="best" departPos="random_free" departSpeed="max" color="78,201,155">
        <route edges="31241835#0 -31241816#3 31241851#0 31241851#1 31241851#2 -31255203#0 -4006702#0 4319352#1 44069041#0 44069041#1 4400949 31982182#0 31982182#1"/>
    </vehicle>
    <vehicle id="Area Flow 31-56" type="Default" depart="42.00" departLane="best" departPos="random_free" departSpeed="max" color="78,201,155">
        <route edges="31241851#1 31241851#2 -31255203#0 -4006702#0 4319352#1 44069041#0 44069041#1 4400949 31982182#0 4047241 4797872 4797871 4006668 126606716 113939242#0 113939242#1 113939242#2 113939241 -113939241"/>
    </vehicle>
    <vehicle id="Area Flow 32-35" type="Default" depart="42.00" departLane="best" departPos="random_free" departSpeed="max" color="141,219,99">
        <route edges="8403001 29900561#0 29900561#1 32270595 33174302#0 33174302#1 4686970#0 25472257 -30357194"/>
    </vehicle>
    <vehicle id="Area Flow 32-342" type="Default" depart="43.00" departLane="best" departPos="random_free" departSpeed="max" color="141,219,99">
        <route edges="113939244#1 113939244#2 -126606716 23339459 30405358#1 85355912 85355911#0 85355911#1 30405356 5931612 30350450#0 30350450#1 30350450#2 4006702#0 31255203#0 -31241851#2 -31241851#1 -31241851#0 31241816#3"/>
    </vehicle>
    <vehicle id="Area Flow 31-9" type="Default" depart="45.00" departLane="best" departPos="random_free" departSpeed="max" color="78,201,155">
        <route edges="3013109 3013107 3013106#1 3013106#2 4319352#1 44069041#0 44069041#1 25472079 30405352 30350445 -33174302#1 -33174302#0 -32270595 8402997 8402998#1 8402998#2 29900564#1 29900564#2 29900564#3 29900564#4 29900564#5"/>
    </vehicle>
    <vehicle id="Area Flow 32-166" type="Default" depart="45.00" departLane="best" departPos="random_free" departSpeed="max" color="141,219,99">
        <route edges="-4006676 32302591#4 32302591#5 33174302#0 33174302#1 4686970#0 4686970#1 122161381 30350448 8364476 30350450#0 30350450#1 30350450#2 4006702#0 4006702#1 4006702#2 -28269598 -4006703#1 4006703#1"/>
    </vehicle>
    <vehicle id="Area Flow 31-38" type="Default" depart="46.00" departLane="best" departPos="random_free" departSpeed="max" color="78,201,155">
        <route edges="-31241853#1 31241853#1 -31241838#0 -31255203#1 -31255203#0 -4006702#0 4319352#1 44069041#0 44069041#1 4400949 31982182#0 4047241 4797872 4797871 4006668 126606716 113939242#0 113939242#1 113939242#2 113939241 -113939241"/>
    </vehicle>
    <vehicle id="Area Flow 31-97" type="Default" depart="47.00" departLane="best" departPos="random_free" departSpeed="max" color="78,201,155">
        <route edges="-31241816#0 31241816#0 31241816#1 31241851#0 31241851#1 31241851#2 -31255203#0 -4006702#0 4319352#1 44069041#0 44069041#1 4400949 31982182#0 4047241 4797872 4797871 4006668 126606716 113939242#0 113939242#1 -25398494#0"/>
    </vehicle>
    <vehicle id="Area Flow 32-33" type="Default" depart="48.00" departLane="best" departPos="random_free" departSpeed="max" color="141,219,99">
        <route edges="-32302591#3 32302591#3 32302591#4 32302591#5 33174302#0 33174302#1 4686970#0 4686970#1 122161381 30350448 8364476 30350450#0 30350450#1 30350450#2 4006702#0 4006702#1 4006702#2 -28269598 -4006703#1 4006705#1 4006705#2 31720632#0 -31720632#0"/>
    </vehicle>
    <vehicle id="Area Flow 32-216" type="Default" depart="49.00" departLane="best" departPos="random_free" departSpeed="max" color="141,219,99">
        <route edges="10712013 -10712013 4006688#3 4006688#4 29900561#0 29900561#1 32270595 33174302#0 33174302#1 4686970#0 4686970#1 122161381 30350448 8364476 30350450#0 30350450#1 30350450#2 4006702#0 4006702#1 4006702#2 -28269598 -4006703#1 4006703#1"/>
    </vehicle>
    <vehicle id="Area Flow 32-287" type="Default" depart="49.00" departLane="best" departPos="random_free" departSpeed="max" color="141,219,99">
        <route edges="4006740 -4006740 -3998613#1 -3998613#0 3998612#0 3998612#1 3998612#2 3013106#0 3013106#1 3013106#2 4006702#0 28613737 94344941 94344940#0 -28613727#1 -28613727#0 -28613734 28613734"/>
    </vehicle>
    <vehicle id="Area Flow 31-193" type="Default" depart="50.00" departLane="best" departPos="random_free" departSpeed="max" color="78,201,155">
        <route edges="-31241816#1 31241816#1 31241851#0 31241851#1 31241851#2 -31255203#0 -4006702#0 4319352#1 44069041#0 44069041#1 25472079 30405352 30350445 -33174302#1 -33174302#0 -32270595 8402997 8402998#1 8402998#2 29900564#1 8403007 23605595"/>
    </vehicle>
    <vehicle id="Area Flow 31-244" type="Default" depart="50.00" departLane="best" departPos="random_free" departSpeed="max" color="78,201,155">
        <route edges="3998615#1 3998643#2 30350450#2 4319352#1 44069041#0 44069041#1 4400949 31982182#0 4047241 4797872 4797871 -15259223"/>
    </vehicle>
    <vehicle id="Area Flow 32-145" type="Default" depart="50.00" departLane="best" departPos="random_free" departSpeed="max" color="141,219,99">
        <route edges="10419402 -4006693#1 -23605595 -8403007 -29900564#1 -8402998#2 -8402998#1 -8402997 32270595 33174302#0 33174302#1 4686970#0 4686970#1 122161381 30350448 8364476 30350450#0 30350450#1 30350450#2 4006702#0 4006702#1 4006702#2 -28269598 -4006703#1 4006705#1 -4006705#1"/>
    </vehicle>
    <vehicle id="Area Flow 32-85" type="Default" depart="51.00" departLane="best" departPos="random_free" departSpeed="max" color="141,219,99">
        <route edges="4686970#0 4686970#1 122161381 30350448 8364476 30350450#0 -3998645#2 -3998645#1 -3998645#0"/>
    </vehicle>
    <vehicle id="Area Flow 31-224" type="Default" depart="53.00" departLane="best" departPos="random_free" departSpeed="max" color="78,201,155">
        <route edges="31261347 -31261347 31241851#1 31241851#2 -31255203#0 -4006702#0 4319352#1 44069041#0 44069041#1 25472079 30405352 30350445 -33174302#1 -33174302#0 -32270595 8402997 8402998#1 8402998#2 29900564#1 8403007 23605595 4006693#1 4006693#2"/>
    </vehicle>
    <vehicle id="Area Flow 31-120" type="Default" depart="54.00" departLane="best" departPos="random_free" departSpeed="max" color="78,201,155">
        <route edges="-3013106#0 3013106#0 3013106#1 3013106#2 4319352#1 44069041#0 44069041#1 4400949 31982182#0 4047241 4797872 4797871 4006668 126606716 113939242#0 5445204#1 5445204#2 39539626"/>
    </vehicle>
    <vehicle id="Area Flow 31-284" type="Default" depart="55.00" departLane="best" departPos="random_free" departSpeed="max" color="78,201,155">
        <route edges="-31241851#1 31241851#1 31241851#2 -31255203#0 -4006702#0 4319352#1 44069041#0 44069041#1 25472079 30405352 30350445 -33174302#1 -33174302#0 -32270595 8402997 8402998#1 8402998#2 29900564#1 8403007 23605595"/>
    </vehicle>
    <vehicle id="Area Flow 31-82" type="Default" depart="56.00" departLane="best" departPos="random_free" departSpeed="max" color="78,201,155">
        <route edges="-31261347 31241851#1 31241851#2 -31255203#0 -4006702#0 4319352#1 44069041#0 44069041#1 4400949 31982182#0 4047241 4797872 4797871 4006668 126606716 113939242#0 113939242#1 113939242#2 113939241 -113939241"/>
    </vehicle>
    <vehicle id="Area Flow 32-4" type="Default" depart="57.00" departLane="best" departPos="random_free" departSpeed="max" color="141,219,99">
        <route edges="-32302591#5 32302591#5 33174302#0 33174302#1 4686970#0 4686970#1 122161381 30350448 8364476 30350450#0 30350450#1 -3998643#2 -3998615#1"/>
    </vehicle>
    <vehicle id="Area Flow 32-313" type="Default" depart="59.00" departLane="best" departPos="random_free" departSpeed="max" color="141,219,99">
        <route edges="31270441 31777493#0 31777493#1 35842306#0 35842306#1 4047446#0 4047446#1 5931612 30350450#0 30350450#1 30350450#2 4006702#0 28613737 94344941 94344940#0 94344940#2 -94344940#2"/>
    </vehicle>
    <vehicle id="Area Flow 32-50" type="Default" depart="59.00" departLane="best" departPos="random_free" departSpeed="max" color="141,219,99">
        <route edges="4047241 4797872 4797871 4006668 23339459 30405358#1 85355912 85355911#0 85355911#1 30405356 5931612 30350450#0 30350450#1 30350450#2 4006702#0 31255203#0 -31241851#2 -31241851#1 -31241851#0 -31241816#1 -31241816#0 -31241855#0 31241855#0"/>
    </vehicle>
    <vehicle id="Area Flow 31-212" type="Default" depart="60.00" departLane="best" departPos="random_free" departSpeed="max" color="78,201,155">
        <route edges="4006726#0 4006726#1 4006726#2 -3998645#0 -3998612#0 30357194 25472299 30350448 30350449 25472079 30405352 30350445 -33174302#1 -33174302#0 -32270595 8402997 8402998#1 8402998#2 29900564#1 8403007 23605595 4006693#1 -10419402 -23570844#2"/>
    </vehicle>
    <vehicle id="Area Flow 31-266" type="Default" depart="60.00" departLane="best" departPos="random_free" departSpeed="max" color="78,201,155">
        <route edges="31261347 -31261347 31241851#1 31241851#2 -31255203#0 -4006702#0 4319352#1 44069041#0 44069041#1 25472079 30405352 30350445 -33174302#1 -33174302#0 -32270595 8402997 8402998#1 8402998#2 29900564#1 29900564#2 -29900564#2"/>
    </vehicle>
    <vehicle id="Area Flow 32-102" type="Default" depart="64.00" departLane="best" departPos="random_free" departSpeed="max" color="141,219,99">
        <route edges="4006682 4006674#1 4006674#2 4006674#3 4006674#4 8403001 29900561#0 29900561#1 32270595 33174302#0 33174302#1 4686970#0 4686970#1 122161381 30350448 8364476 30350450#0 30350450#1 30350450#2 -3013106#2 -3013106#1 -3013107 -3013109"/>
    </vehicle>
    <vehicle id="Area Flow 32-330" type="Default" depart="64.00" departLane="best" departPos="random_free" departSpeed="max" color="141,219,99">
        <route edges="4006688#3 4006688#4 29900561#0 29900561#1 32270595 33174302#0 33174302#1 4686970#0 25472257 -30357194 3998612#0 -4006725#1 -4872369"/>
    </vehicle>
    <vehicle id="Area Flow 31-208" type="Default" depart="65.00" departLane="best" departPos="random_free" departSpeed="max" color="78,201,155">
        <route edges="-3013106#1 3013106#1 3013106#2 4319352#1 44069041#0 44069041#1 4400949 31982182#0"/>
    </vehicle>
    <vehicle id="Area Flow 31-44" type="Default" depart="66.00" departLane="best" departPos="random_free" departSpeed="max" color="78,201,155">
        <route edges="3998612#2 3013106#0 3013106#1 3013106#2 4319352#1 44069041#0 44069041#1 25472079 30405352 30350445 -33174302#1 -33174302#0 -32270595 8402997 8402998#1 8402998#2 29900564#1 29900564#2 29900564#3 -29900564#3"/>
    </vehicle>
    <vehicle id="Area Flow 31-105" type="Default" depart="67.00" departLane="best" departPos="random_free" departSpeed="max" color="78,201,155">
        <route edges="3013107 3013106#1 3013106#2 4319352#1 44069041#0 44069041#1 25472079 30405352 30350445 -33174302#1 -33174302#0 -29900565#3 -29900565#2 -29900565#1 -29900565#0 -4006690 -4006693#4 4006693#4"/>
    </vehicle>
    <vehicle id="Area Flow 31-235" type="Default" depart="68.00" departLane="best" departPos="random_free" departSpeed="max" color="78,201,155">
        <route edges="3013106#2 4319352#1 44069041#0 44069041#1 25472079 30405352 30350445 -33174302#1 -33174302#0 -32270595 8402997 8402998#1 8402998#2 8402998#3"/>
    </vehicle>