<?xml version="1.0" encoding="UTF-8"?>

<!-- generated on Sun Feb 15 13:40:17 2015 by SUMO duarouter Version 0.22.0
<?xml version="1.0" encoding="UTF-8"?>

<configuration xmlns:xsi="http://www.w3.org/2001/XMLSchema-instance" xsi:noNamespaceSchemaLocation="http://sumo.dlr.de/xsd/duarouterConfiguration.xsd">

    <input>
        <net-file value="/home/hendrik/CEC/ITSCmap/trafficmodeler/gen7/erlangen.net.xml"/>
        <trip-files value="/home/hendrik/CEC/ITSCmap/trafficmodeler/gen7/sim.generated-trips.xml"/>
    </input>

    <output>
        <output-file value="/home/hendrik/CEC/ITSCmap/trafficmodeler/gen7/erlangen.rou.xml"/>
    </output>

    <processing>
        <ignore-errors value="true"/>
        <repair value="true"/>
    </processing>

    <defaults>
        <departlane value="best"/>
        <departpos value="random_free"/>
        <departspeed value="max"/>
    </defaults>

    <time>
        <begin value="0"/>
        <end value="540"/>
    </time>

    <random_number>
        <seed value="1000"/>
    </random_number>

</configuration>
-->

<routes xmlns:xsi="http://www.w3.org/2001/XMLSchema-instance" xsi:noNamespaceSchemaLocation="http://sumo.dlr.de/xsd/routes_file.xsd">
    <vType id="Default" length="5.00" maxSpeed="70.00">
        <carFollowing-Krauss accel="2.60" decel="4.50" sigma="0.50"/>
    </vType>
    <vehicle id="Area Flow 35-34" type="Default" depart="0.00" departLane="best" departPos="random_free" departSpeed="max" color="33,147,201">
        <route edges="-23350929 23350929 4900041#2 4900041#3 4900041#0 -4900043 -4006702#1 -4006702#0 4319352#1 44069041#0 44069041#1 25472079 30405352 30350445 -33174302#1 -33174302#0 -32270595 8402997 8402998#1 8402998#2 -29900564#0"/>
    </vehicle>
    <vehicle id="Area Flow 36-351" type="Default" depart="0.00" departLane="best" departPos="random_free" departSpeed="max" color="3,167,161">
        <route edges="4006675 -32270592#0 -32270593 4006674#0 4006674#1 4006674#2 4006674#3 4006674#4 8403001 29900561#0 29900561#1 32270595 33174302#0 33174302#1 4686970#0 25472257"/>
    </vehicle>
    <vehicle id="Area Flow 36-252" type="Default" depart="3.00" departLane="best" departPos="random_free" departSpeed="max" color="3,167,161">
        <route edges="4006668 23339459 30405358#1 85355912 85355911#0 85355911#1 30405356 4047309 30751813 -35842306#1 26188722"/>
    </vehicle>
    <vehicle id="Area Flow 36-3" type="Default" depart="3.00" departLane="best" departPos="random_free" departSpeed="max" color="3,167,161">
        <route edges="-8402997 32270595 33174302#0 33174302#1 4686970#0 4686970#1 122161381 30350448 8364476 30350450#0 30350450#1 30350450#2 4319352#1 44069041#0"/>
    </vehicle>
    <vehicle id="Area Flow 35-24" type="Default" depart="4.00" departLane="best" departPos="random_free" departSpeed="max" color="33,147,201">
        <route edges="-4006702#0 4319352#1 44069041#0 44069041#1 25472079 30405352 19796637 122161390 -30357194"/>
    </vehicle>
    <vehicle id="Area Flow 36-168" type="Default" depart="4.00" departLane="best" departPos="random_free" departSpeed="max" color="3,167,161">
        <route edges="29900564#1 -29900564#1 -8402998#2 -8402998#1 -8402997 32270595 33174302#0 33174302#1 4686970#0 4686970#1 122161381 30350448 8364476 30350450#0 -3998645#2 -3998645#1"/>
    </vehicle>
    <vehicle id="Area Flow 36-27" type="Default" depart="5.00" departLane="best" departPos="random_free" departSpeed="max" color="3,167,161">
        <route edges="-8402998#0 29900565#3 33174302#0 33174302#1 4686970#0 4686970#1 122161381 30350448 8364476 30350450#0 -3998645#2 -3998615#3 4099270#1 -4099270#1"/>
    </vehicle>
    <vehicle id="Area Flow 35-149" type="Default" depart="6.00" departLane="best" departPos="random_free" departSpeed="max" color="33,147,201">
        <route edges="4006705#0 4006703#1 28269598 -4006702#2 -4006702#1 -4006702#0 4319352#1 44069041#0 44069041#1 25472079 30405352 30350445 -33174302#1 -33174302#0 -32270595 -29900561#1 -29900561#0 -8403001 -4006674#4 23605600#1 4006675"/>
    </vehicle>
    <vehicle id="Area Flow 36-390" type="Default" depart="6.00" departLane="best" departPos="random_free" departSpeed="max" color="3,167,161">
        <route edges="4006688#3 4006688#4 29900561#0 29900561#1 32270595 33174302#0 33174302#1 4686970#0 4686970#1 122161381 30350448 8364476 30350450#0 -3998645#2 -3998645#1 -4006726#2 -4006726#1 -4006726#0"/>
    </vehicle>
    <vehicle id="Area Flow 36-117" type="Default" depart="7.00" departLane="best" departPos="random_free" departSpeed="max" color="3,167,161">
        <route edges="31401017#1 -31401017#1 4006688#0 4006688#1 4006688#2 4006688#3 4006688#4 29900561#0 29900561#1 32270595 33174302#0 33174302#1 4686970#0 4686970#1 122161381 30350448 8364476 30350450#0 30350450#1 30350450#2 4006702#0 31255203#0 -31241851#2 -31241853#2 31241853#2"/>
    </vehicle>
    <vehicle id="Area Flow 36-378" type="Default" depart="7.00" departLane="best" departPos="random_free" departSpeed="max" color="3,167,161">
        <route edges="-4006693#4 4006693#4 4006690 29900565#0 29900565#1 29900565#2 29900565#3 33174302#0 33174302#1 4686970#0 4686970#1 122161381 30350448 8364476 30350450#0 30350450#1 30350450#2 -3013106#2 -3013106#1 -3013107 -3013109"/>
    </vehicle>
    <vehicle id="Area Flow 36-81" type="Default" depart="9.00" departLane="best" departPos="random_free" departSpeed="max" color="3,167,161">
        <route edges="-15259223 15259223 4006668 23339459 30405358#1 85355912 85355911#0 85355911#1 30405356 5931612 30350450#0 30350450#1 30350450#2 4006702#0 28613737 94344941"/>
    </vehicle>
    <vehicle id="Area Flow 36-294" type="Default" depart="12.00" departLane="best" departPos="random_free" departSpeed="max" color="3,167,161">
        <route edges="4047241 4797872 4797871 4006668 23339459 30405358#1 85355912 85355911#0 85355911#1 30405356 5931612 30350450#0 30350450#1 30350450#2 -3013106#2 3013106#2"/>
    </vehicle>
    <vehicle id="Area Flow 36-210" type="Default" depart="13.00" departLane="best" departPos="random_free" departSpeed="max" color="3,167,161">
        <route edges="-4006693#4 4006693#4 4006690 29900565#0 29900565#1 29900565#2 29900565#3 33174302#0 33174302#1 4686970#0 4686970#1 122161381 30350448 8364476 30350450#0 30350450#1 30350450#2 4006702#0 4006702#1 4900043 4900041#1 4900041#2 4900041#3 4900041#0 -4900043"/>
    </vehicle>
    <vehicle id="Area Flow 36-359" type="Default" depart="13.00" departLane="best" departPos="random_free" departSpeed="max" color="3,167,161">
        <route edges="-4006688#4 4006688#4 29900561#0 29900561#1 32270595 33174302#0 33174302#1 4686970#0 4686970#1 122161390"/>
    </vehicle>
    <vehicle id="Area Flow 35-192" type="Default" depart="14.00" departLane="best" departPos="random_free" departSpeed="max" color="33,147,201">
        <route edges="-4099270#1 -4099270#0 4006726#2 -3998645#0 -3998612#0 30357194 25472299 30350448 30350449 25472079 30405352 30350445 -33174302#1 -33174302#0 -32270595 -29900561#1 -29900561#0 -8403001 -4006674#4 4006674#4"/>
    </vehicle>
    <vehicle id="Area Flow 35-135" type="Default" depart="15.00" departLane="best" departPos="random_free" departSpeed="max" color="33,147,201">
        <route edges="-28269598 28269598 -4006702#2 -4006702#1 -4006702#0 4319352#1 44069041#0 44069041#1 4400949 31982182#0 4047241 4797872 4797871 4006668 23339459 30405358#1"/>
    </vehicle>
    <vehicle id="Area Flow 35-163" type="Default" depart="15.00" departLane="best" departPos="random_free" departSpeed="max" color="33,147,201">
        <route edges="-94344940#0 28768072 -28613737 -4006702#0 4319352#1 44069041#0 44069041#1 25472079 30405352 30350445 -33174302#1 -33174302#0 -32270595 8402997 8402998#1 8402998#2 29900564#1 29900564#2 29900564#3 -10425128#1 23341293"/>
    </vehicle>
    <vehicle id="Area Flow 35-168" type="Default" depart="15.00" departLane="best" departPos="random_free" departSpeed="max" color="33,147,201">
        <route edges="-3998643#2 3998643#2 30350450#2 4319352#1 44069041#0 44069041#1 25472079 30405352 30350445 -33174302#1 -33174302#0 -32270595 -29900561#1 -29900561#0 -8403001 -4006674#4 23605600#1 -23605600#1"/>
    </vehicle>
    <vehicle id="Area Flow 36-373" type="Default" depart="16.00" departLane="best" departPos="random_free" departSpeed="max" color="3,167,161">
        <route edges="-113939241 113939244#0 113939244#1 113939244#2 -126606716 23339459 30405358#1 85355912 85355911#0 25472101 30405352 19796637 122161390 -30357194 3998613#0"/>
    </vehicle>
    <vehicle id="Area Flow 36-93" type="Default" depart="18.00" departLane="best" departPos="random_free" departSpeed="max" color="3,167,161">
        <route edges="39539626 -39539626 -5445204#2 -5445204#1 113939244#2 -126606716 23339459 30405358#1 85355912 85355911#0 85355911#1 30405356 5931612 30350450#0 30350450#1 30350450#2 4006702#0 31255203#0 -31241851#2 -31241851#1 -31241851#0 -31241848"/>
    </vehicle>
    <vehicle id="Area Flow 36-132" type="Default" depart="20.00" departLane="best" departPos="random_free" departSpeed="max" color="3,167,161">
        <route edges="-31401017#1 4006688#0 4006688#1 4006688#2 4006688#3 4006688#4 29900561#0 29900561#1 32270595 33174302#0 33174302#1 4686970#0 25472257 -30357194 3998612#0 -4006725#1 -4872369 4006724#2"/>
    </vehicle>
    <vehicle id="Area Flow 36-55" type="Default" depart="22.00" departLane="best" departPos="random_free" departSpeed="max" color="3,167,161">
        <route edges="4006688#4 29900561#0 29900561#1 32270595 33174302#0 33174302#1 4686970#0 4686970#1 122161381 30350448 8364476 30350450#0 30350450#1 30350450#2 4006702#0 31255203#0 -31241851#2 -31241853#2 -31241838#0"/>
    </vehicle>
    <vehicle id="Area Flow 36-175" type="Default" depart="24.00" departLane="best" departPos="random_free" departSpeed="max" color="3,167,161">
        <route edges="5445204#2 -5445204#2 -5445204#1 113939244#2 -126606716 23339459 30405358#1 85355912 85355911#0 25472101 30405352 19796637 122161381 30350448 8364476"/>
    </vehicle>
    <vehicle id="Area Flow 36-364" type="Default" depart="24.00" departLane="best" departPos="random_free" departSpeed="max" color="3,167,161">
        <route edges="23605600#0 4006674#4 8403001 29900561#0 29900561#1 32270595 33174302#0 33174302#1 4686970#0 4686970#1 122161381 30350448 8364476 30350450#0 30350450#1 30350450#2 4006702#0 28613737 94344941 28768072"/>
    </vehicle>
    <vehicle id="Area Flow 35-175" type="Default" depart="25.00" departLane="best" departPos="random_free" departSpeed="max" color="33,147,201">
        <route edges="44069041#0 44069041#1 25472079 30405352 30350445 -33174302#1 4006689"/>
    </vehicle>
    <vehicle id="Area Flow 35-23" type="Default" depart="25.00" departLane="best" departPos="random_free" departSpeed="max" color="33,147,201">
        <route edges="-3998645#2 -3998645#1 -3998645#0 -3998612#0 30357194 25472299 30350448 30350449 25472079 30405352 30350445"/>
    </vehicle>
    <vehicle id="Area Flow 35-51" type="Default" depart="27.00" departLane="best" departPos="random_free" departSpeed="max" color="33,147,201">
        <route edges="-4006703#0 4006703#0 4006703#1 28269598 -4006702#2 -4006702#1 -4006702#0 4319352#1 44069041#0 44069041#1 25472079 30405352 30350445 4686970#0"/>
    </vehicle>
    <vehicle id="Area Flow 36-131" type="Default" depart="27.00" departLane="best" departPos="random_free" departSpeed="max" color="3,167,161">
        <route edges="-23570844#2 -5445204#3 -5445204#2 -5445204#1 113939244#2 -126606716 23339459 30405358#1 85355912 85355911#0 85355911#1 30405356 5931612 30350450#0 -3998645#2 -3998645#1 -4006726#2 -4006726#1"/>
    </vehicle>
    <vehicle id="Area Flow 36-353" type="Default" depart="28.00" departLane="best" departPos="random_free" departSpeed="max" color="3,167,161">
        <route edges="-4006690 4006690 29900565#0 29900565#1 29900565#2 29900565#3 33174302#0 33174302#1 4686970#0 4686970#1 122161381 30350448 8364476 30350450#0 -3998645#2 -3998645#1 -4006726#2 4099270#0"/>
    </vehicle>
    <vehicle id="Area Flow 35-91" type="Default" depart="30.00" departLane="best" departPos="random_free" departSpeed="max" color="33,147,201">
        <route edges="-23805514#1 23805514#1 -4006702#2 -4006702#1 -4006702#0 4319352#1 44069041#0 44069041#1 25472079 30405352 30350445 -33174302#1 -33174302#0 -32270595 8402997 8402998#1 -8402998#1"/>
    </vehicle>
    <vehicle id="Area Flow 35-66" type="Default" depart="32.00" departLane="best" departPos="random_free" departSpeed="max" color="33,147,201">
        <route edges="-31241851#0 31241851#0 31241851#1 31241851#2 -31255203#0 -4006702#0 4319352#1 44069041#0 44069041#1 25472079 30405352 30350445 -33174302#1 -33174302#0 -32302591#5 -32302591#4 -32302591#3 -32302591#2 -32302591#1 -32302591#0"/>
    </vehicle>
    <vehicle id="Area Flow 36-263" type="Default" depart="32.00" departLane="best" departPos="random_free" departSpeed="max" color="3,167,161">
        <route edges="4006693#1 -4006693#1 -23605595 -8403007 -29900564#1 -8402998#2 -8402998#1 -8402997 32270595 33174302#0 33174302#1 4686970#0 4686970#1 122161381 30350448 8364476 30350450#0 30350450#1 -3998643#2"/>
    </vehicle>
    <vehicle id="Area Flow 36-84" type="Default" depart="33.00" departLane="best" departPos="random_free" departSpeed="max" color="3,167,161">
        <route edges="-4047532 -32270592#1 -32270592#0 -32270593 4006674#0 4006674#1 4006674#2 4006674#3 4006674#4 8403001 29900561#0 29900561#1 32270595 33174302#0 33174302#1 4686970#0 4686970#1 122161381 30350448 30350449 4047309 30751813 4047446#0 25472129"/>
    </vehicle>
    <vehicle id="Area Flow 35-68" type="Default" depart="34.00" departLane="best" departPos="random_free" departSpeed="max" color="33,147,201">
        <route edges="-31241835#1 -31241816#3 31241851#0 31241851#1 31241851#2 -31255203#0 -4006702#0 4319352#1 44069041#0 44069041#1 25472079 30405352 30350445 -33174302#1 -33174302#0 -32270595 -29900561#1 -29900561#0 -4006688#4 4006688#4"/>
    </vehicle>
    <vehicle id="Area Flow 36-136" type="Default" depart="34.00" departLane="best" departPos="random_free" departSpeed="max" color="3,167,161">
        <route edges="8402998#1 -8402998#1 -8402997 32270595 33174302#0 33174302#1 31353573#0 31353573#1 -3998613#2 -3998613#1"/>
    </vehicle>
    <vehicle id="Area Flow 35-153" type="Default" depart="37.00" departLane="best" departPos="random_free" departSpeed="max" color="33,147,201">
        <route edges="-31261347 31241851#1 31241851#2 -31255203#0 -4006702#0 4319352#1 44069041#0 44069041#1 25472079 30405352 30350445 -33174302#1 -33174302#0 -32302591#5 23605600#0"/>
    </vehicle>
    <vehicle id="Area Flow 36-304" type="Default" depart="37.00" departLane="best" departPos="random_free" departSpeed="max" color="3,167,161">
        <route edges="29900564#5 29900565#0 29900565#1 29900565#2 29900565#3 33174302#0 33174302#1 4686970#0 4686970#1 122161381 30350448 30350449 4047309 30751813 4047446#0 25472129"/>
    </vehicle>
    <vehicle id="Area Flow 36-39" type="Default" depart="37.00" departLane="best" departPos="random_free" departSpeed="max" color="3,167,161">
        <route edges="-29900565#0 29900565#0 29900565#1 29900565#2 29900565#3 33174302#0 33174302#1 4686970#0 4686970#1 122161381 30350448 8364476 30350450#0 30350450#1 30350450#2 4319353"/>
    </vehicle>
    <vehicle id="Area Flow 35-86" type="Default" depart="38.00" departLane="best" departPos="random_free" departSpeed="max" color="33,147,201">
        <route edges="31241834#1 31241855#0 31241816#0 31241816#1 31241851#0 31241851#1 31241851#2 -31255203#0 -4006702#0 4319352#1 44069041#0 44069041#1 25472079 30405352 30350445 -33174302#1 -33174302#0 -32270595 8402997 8402998#1 8402998#2 29900564#1 29900564#2 29900564#3 -10425128#1 23341293"/>
    </vehicle>
    <vehicle id="Area Flow 36-375" type="Default" depart="40.00" departLane="best" departPos="random_free" departSpeed="max" color="3,167,161">
        <route edges="4006688#1 4006688#2 4006688#3 4006688#4 29900561#0 29900561#1 32270595 33174302#0 33174302#1 4686970#0 4686970#1 122161381 30350448 8364476 30350450#0 30350450#1 30350450#2 -3013106#2"/>
    </vehicle>
    <vehicle id="Area Flow 36-126" type="Default" depart="42.00" departLane="best" departPos="random_free" departSpeed="max" color="3,167,161">
        <route edges="-29900564#0 29900561#0 29900561#1 32270595 33174302#0 33174302#1 4686970#0 4686970#1 122161381 30350448 8364476 30350450#0 30350450#1 30350450#2 4006702#0 31255203#0 -31241851#2 -31241851#1 -31241851#0 -31241848 -31241834#0"/>
    </vehicle>
    <vehicle id="Area Flow 36-17" type="Default" depart="42.00" departLane="best" departPos="random_free" departSpeed="max" color="3,167,161">
        <route edges="-4006668 4006668 23339459 30405358#1 85355912 85355911#0 25472101 30405352 19796637 122161390 -30357194 3998613#0 -3998613#0"/>
    </vehicle>
    <vehicle id="Area Flow 36-194" type="Default" depart="43.00" departLane="best" departPos="random_free" departSpeed="max" color="3,167,161">
        <route edges="-4006668 4006668 23339459 30405358#1 85355912 85355911#0 85355911#1 30405356 5931612 30350450#0 30350450#1 30350450#2 -3013106#2 -3013106#1 -3013106#0 3013106#0"/>
    </vehicle>
    <vehicle id="Area Flow 35-105" type="Default" depart="44.00" departLane="best" departPos="random_free" departSpeed="max" color="33,147,201">
        <route edges="-4006705#2 -4006705#1 4006703#1 28269598 -4006702#2 -4006702#1 -4006702#0 4319352#1 44069041#0 44069041#1 25472079 30405352 30350445 -33174302#1 -33174302#0 -29900565#3 -29900565#2 -29900565#1 -29900565#0 -4006690"/>
    </vehicle>
    <vehicle id="Area Flow 36-119" type="Default" depart="45.00" departLane="best" departPos="random_free" departSpeed="max" color="3,167,161">
        <route edges="31401017#0 4006688#0 4006688#1 4006688#2 4006688#3 4006688#4 29900561#0 29900561#1 32270595 33174302#0 33174302#1 4686970#0 4686970#1 122161381 30350448 8364476 30350450#0 30350450#1 30350450#2 4006702#0 31255203#0 -31241851#2 -31241851#1 -31241851#0 -31241816#1 -31241816#0 -31241855#0 31241855#0"/>
    </vehicle>
    <vehicle id="Area Flow 36-293" type="Default" depart="45.00" departLane="best" departPos="random_free" departSpeed="max" color="3,167,161">
        <route edges="23605595 -23605595 -8403007 -29900564#1 -8402998#2 -8402998#1 -8402997 32270595 33174302#0 33174302#1 4686970#0 25472257 -30357194 3998612#0 3998612#1 -4006724#2"/>
    </vehicle>
    <vehicle id="Area Flow 36-105" type="Default" depart="47.00" departLane="best" departPos="random_free" departSpeed="max" color="3,167,161">
        <route edges="-4006674#3 4006674#3 4006674#4 8403001 29900561#0 29900561#1 32270595 33174302#0 33174302#1 4686970#0 4686970#1 122161381 30350448 8364476 30350450#0 30350450#1"/>
    </vehicle>
    <vehicle id="Area Flow 36-97" type="Default" depart="47.00" departLane="best" departPos="random_free" departSpeed="max" color="3,167,161">
        <route edges="-39539626 -5445204#2 -5445204#1 113939244#2 -126606716 23339459 30405358#1 85355912 85355911#0 25472101 30405352 30350445 31353573#0 31353573#1 -3998613#2 4006740 -4006740"/>
    </vehicle>
    <vehicle id="Area Flow 36-329" type="Default" depart="48.00" departLane="best" departPos="random_free" departSpeed="max" color="3,167,161">
        <route edges="-4047532 -32270592#1 -32270592#0 -32270593 4006674#0 4006674#1 4006674#2 4006674#3 4006674#4 8403001 29900561#0 29900561#1 32270595 33174302#0 33174302#1 4686970#0 4686970#1 122161381 30350448 8364476 30350450#0 30350450#1 -3998643#2 -3998615#1 -3998615#0"/>
    </vehicle>
    <vehicle id="Area Flow 36-317" type="Default" depart="49.00" departLane="best" departPos="random_free" departSpeed="max" color="3,167,161">
        <route edges="5445204#1 -5445204#1 113939244#2 -126606716 23339459 30405358#1 85355912 85355911#0 85355911#1 30405356 5931612 30350450#0 30350450#1 30350450#2 4006702#0 31255203#0 -31241851#2 -31241851#1 -31241851#0 -31241816#1 -31241816#0"/>
    </vehicle>
    <vehicle id="Area Flow 36-12" type="Default" depart="50.00" departLane="best" departPos="random_free" departSpeed="max" color="3,167,161">
        <route edges="8403007 23605595 -4006693#0 25398494#0 113939244#1 113939244#2 -126606716 23339459 30405358#1 85355912 85355911#0 25472101"/>
    </vehicle>
    <vehicle id="Area Flow 36-90" type="Default" depart="50.00" departLane="best" departPos="random_free" departSpeed="max" color="3,167,161">
        <route edges="5445204#1 -5445204#1 113939244#2 -126606716 23339459 30405358#1 85355912 85355911#0 85355911#1 30405356 5931612 30350450#0 30350450#1 30350450#2 4006702#0 31255203#0 -31241851#2 -31241851#1 -31241851#0 31241816#3 31241835#1"/>
    </vehicle>
    <vehicle id="Area Flow 36-333" type="Default" depart="51.00" departLane="best" departPos="random_free" departSpeed="max" color="3,167,161">
        <route edges="4006687 32270595 33174302#0 33174302#1 4686970#0 4686970#1 122161381 30350448 8364476 30350450#0 -3998645#2 -3998645#1 -4006726#2 -4006726#1 -3998643#0"/>
    </vehicle>
    <vehicle id="Area Flow 35-74" type="Default" depart="53.00" departLane="best" departPos="random_free" departSpeed="max" color="33,147,201">
        <route edges="-3998645#2 -3998645#1 -3998645#0 -3998612#0 30357194 25472299 30350448 30350449 25472079 30405352 30350445 -33174302#1 -33174302#0 -32270595 -29900561#1 -29900561#0 -4006688#4 -4006688#3 -4006688#2 -4006688#1 -4006688#0 31401017#1 -8402998#3"/>
    </vehicle>
    <vehicle id="Area Flow 36-343" type="Default" depart="53.00" departLane="best" departPos="random_free" departSpeed="max" color="3,167,161">
        <route edges="-5445204#1 113939244#2 -126606716 23339459 30405358#1 85355912 85355911#0 25472101 30405352 30350445"/>
    </vehicle>
    <vehicle id="Area Flow 35-193" type="Default" depart="54.00" departLane="best" departPos="random_free" departSpeed="max" color="33,147,201">
        <route edges="30350450#2 4319352#1 44069041#0 44069041#1 25472079 30405352 30350445 -33174302#1 -33174302#0 -32270595 -29900561#1 -29900561#0 -4006688#4 -4006688#3 -4006688#2 -4006688#1 -4006688#0 -31401017#0 -29900567 -23605600#2"/>
    </vehicle>
    <vehicle id="Area Flow 36-251" type="Default" depart="54.00" departLane="best" departPos="random_free" departSpeed="max" color="3,167,161">
        <route edges="4047241 4797872 4797871 4006668 23339459 30405358#1 85355912 85355911#0 85355911#1 30405356 5931612 30350450#0 30350450#1 30350450#2 4006702#0 31255203#0"/>
    </vehicle>
    <vehicle id="Area Flow 36-189" type="Default" depart="55.00" departLane="best" departPos="random_free" departSpeed="max" color="3,167,161">
        <route edges="4047532 31401018 29900567 31401017#0 4006688#0 4006688#1 4006688#2 4006688#3 4006688#4 29900561#0 29900561#1 32270595 33174302#0 33174302#1 4686970#0 4686970#1 122161381 30350448 30350449 25472079 30405352 19796637"/>
    </vehicle>
    <vehicle id="Area Flow 35-178" type="Default" depart="56.00" departLane="best" departPos="random_free" departSpeed="max" color="33,147,201">
        <route edges="31241834#0 31241848 31241851#0 31241851#1 31241851#2 -31255203#0 -4006702#0 4319352#1 44069041#0 44069041#1 25472079 30405352 30350445 -33174302#1 -33174302#0 -32270595 8402997 8402998#1 8402998#2 29900564#1 8403007 -23341293"/>
    </vehicle>
    <vehicle id="Area Flow 36-199" type="Default" depart="57.00" departLane="best" departPos="random_free" departSpeed="max" color="3,167,161">
        <route edges="8403001 29900561#0 29900561#1 32270595 33174302#0 33174302#1 4686970#0 4686970#1 122161381 30350448 8364476 30350450#0 30350450#1 30350450#2 4006702#0 31255203#0 -31241851#2 -31241851#1 31261347"/>
    </vehicle>
    <vehicle id="Area Flow 36-306" type="Default" depart="57.00" departLane="best" departPos="random_free" departSpeed="max" color="3,167,161">
        <route edges="4006688#3 4006688#4 29900561#0 29900561#1 32270595 33174302#0 33174302#1 4686970#0 4686970#1 122161381 30350448 8364476 30350450#0 30350450#1 30350450#2 4006702#0 31255203#0 -31241851#2 31241851#2"/>
    </vehicle>
    <vehicle id="Area Flow 36-174" type="Default" depart="58.00" departLane="best" departPos="random_free" departSpeed="max" color="3,167,161">
        <route edges="113939242#2 113939244#0 113939244#1 113939244#2 -126606716 23339459 30405358#1 85355912 85355911#0 85355911#1 30405356 5931612 30350450#0 30350450#1 30350450#2 4006702#0 31255203#0 31255203#1 -31255203#1"/>
    </vehicle>
    <vehicle id="Area Flow 36-204" type="Default" depart="58.00" departLane="best" departPos="random_free" departSpeed="max" color="3,167,161">
        <route edges="-5445204#2 -5445204#1 113939244#2 -126606716 23339459 30405358#1 85355912 85355911#0 25472101 30405352 19796637 122161390 -30357194 -32282774 32282774"/>
    </vehicle>
    <vehicle id="Area Flow 36-44" type="Default" depart="58.00" departLane="best" departPos="random_free" departSpeed="max" color="3,167,161">
        <route edges="4006674#3 4006674#4 8403001 29900561#0 29900561#1 32270595 33174302#0 33174302#1 4686970#0 25472257 -30357194 3998613#0"/>
    </vehicle>
    <vehicle id="Area Flow 36-64" type="Default" depart="58.00" departLane="best" departPos="random_free" departSpeed="max" color="3,167,161">
        <route edges="-23570844#1 23570844#1 -5445204#3 -5445204#2 -5445204#1 113939244#2 -126606716 23339459 30405358#1 85355912 85355911#0 25472101 30405352 19796637 122161390 -30357194 -32282774"/>
    </vehicle>
    <vehicle id="Area Flow 35-14" type="Default" depart="60.00" departLane="best" departPos="random_free" departSpeed="max" color="33,147,201">
        <route edges="-28613727#1 28613727#1 -94344940#0 28768072 -28613737 -4006702#0 4319352#1 44069041#0 44069041#1 25472079 30405352 30350445 -33174302#1 -33174302#0 -32270595 -29900561#1 -29900561#0 -4006688#4 -4006688#3 -4006688#2 4006688#2"/>
    </vehicle>
    <vehicle id="Area Flow 36-58" type="Default" depart="60.00" departLane="best" departPos="random_free" departSpeed="max" color="3,167,161">
        <route edges="30405358#0 30405358#1 85355912 85355911#0 25472101 30405352 19796637 122161390 -30357194 3998612#0 3998612#1 3998643#0"/>
    </vehicle>
    <vehicle id="Area Flow 36-94" type="Default" depart="60.00" departLane="best" departPos="random_free" departSpeed="max" color="3,167,161">
        <route edges="31401017#0 4006688#0 4006688#1 4006688#2 4006688#3 4006688#4 29900561#0 29900561#1 32270595 33174302#0 33174302#1 4686970#0 4686970#1 122161381 30350448 8364476 30350450#0 30350450#1 30350450#2 4006702#0 31255203#0 -31241851#2 -31241851#1 -31241851#0 -31241848 -31241834#0"/>
    </vehicle>
    <vehicle id="Area Flow 36-110" type="Default" depart="61.00" departLane="best" departPos="random_free" departSpeed="max" color="3,167,161">
        <route edges="-4006688#0 4006688#0 4006688#1 4006688#2 4006688#3 4006688#4 29900561#0 29900561#1 32270595 33174302#0 33174302#1 4686970#0 4686970#1 122161381 30350448 8364476 30350450#0 -3998645#2 -3998645#1 -4006726#2 -4006726#1 -4006726#0"/>
    </vehicle>
    <vehicle id="Area Flow 36-220" type="Default" depart="61.00" departLane="best" departPos="random_free" departSpeed="max" color="3,167,161">
        <route edges="-23605595 -8403007 -29900564#1 -8402998#2 -8402998#1 -8402997 32270595 33174302#0 33174302#1 31353573#0 31353573#1 -3998613#2 -3998613#1 3998653"/>
    </vehicle>
    <vehicle id="Area Flow 36-60" type="Default" depart="61.00" departLane="best" departPos="random_free" departSpeed="max" color="3,167,161">
        <route edges="4006688#3 4006688#4 29900561#0 29900561#1 32270595 33174302#0 33174302#1 4686970#0 4686970#1 122161381 30350448 8364476 30350450#0 30350450#1 30350450#2 4006702#0 4006702#1 4900043 4900041#1"/>
    </vehicle>
    <vehicle id="Area Flow 36-249" type="Default" depart="62.00" departLane="best" departPos="random_free" departSpeed="max" color="3,167,161">
        <route edges="8403007 -8403007 -29900564#1 -8402998#2 -8402998#1 -8402997 32270595 33174302#0 33174302#1 4686970#0 4686970#1 122161381 30350448 8364476 30350450#0 30350450#1 -3998643#2"/>
    </vehicle>
    <vehicle id="Area Flow 36-69" type="Default" depart="63.00" departLane="best" departPos="random_free" departSpeed="max" color="3,167,161">
        <route edges="-10425131 4006688#4 29900561#0 29900561#1 32270595 33174302#0 33174302#1 4686970#0 4686970#1 122161381 30350448 8364476 30350450#0 -3998645#2 3998645#2"/>
    </vehicle>
    <vehicle id="Area Flow 36-352" type="Default" depart="64.00" departLane="best" departPos="random_free" departSpeed="max" color="3,167,161">
        <route edges="-4047532 -32270592#1 -32270592#0 -32270593 4006674#0 4006674#1 4006674#2 4006674#3 4006674#4 8403001 29900561#0 29900561#1 32270595 33174302#0 33174302#1 4686970#0 4686970#1 122161381 30350448 8364476 30350450#0 -3998645#2 -3998615#3"/>
    </vehicle>
    <vehicle id="Area Flow 35-99" type="Default" depart="65.00" departLane="best" departPos="random_free" departSpeed="max" color="33,147,201">
        <route edges="4006701 -4006701 -4006702#2 -4006702#1 -4006702#0 -3013106#2 -3013106#1 -3013106#0 -3998612#2 -3998612#1 -3998612#0 3998613#0 3998613#1 3998613#2 -41973977 -32271499 32271499"/>
    </vehicle>
    <vehicle id="Area Flow 35-165" type="Default" depart="66.00" departLane="best" departPos="random_free" departSpeed="max" color="33,147,201">
        <route edges="4006701 -4006701 -4006702#2 -4006702#1 -4006702#0 4319352#1 44069041#0 44069041#1 25472079 30405352 30350445 -33174302#1 -33174302#0 -32270595 8402997 8402998#1 -8402998#1"/>
    </vehicle>
    <vehicle id="Area Flow 36-164" type="Default" depart="67.00" departLane="best" departPos="random_free" departSpeed="max" color="3,167,161">
        <route edges="4006674#3 4006674#4 8403001 29900561#0 29900561#1 32270595 33174302#0 33174302#1 4686970#0 25472257 -30357194 -32282774 32282774"/>
    </vehicle>
    <vehicle id="Area Flow 36-96" type="Default" depart="67.00" departLane="best" departPos="random_free" departSpeed="max" color="3,167,161">