<?xml version="1.0" encoding="UTF-8"?>

<!-- generated on Sun Feb 15 13:40:50 2015 by SUMO duarouter Version 0.22.0
<?xml version="1.0" encoding="UTF-8"?>

<configuration xmlns:xsi="http://www.w3.org/2001/XMLSchema-instance" xsi:noNamespaceSchemaLocation="http://sumo.dlr.de/xsd/duarouterConfiguration.xsd">

    <input>
        <net-file value="/home/hendrik/CEC/ITSCmap/trafficmodeler/gen10/erlangen.net.xml"/>
        <trip-files value="/home/hendrik/CEC/ITSCmap/trafficmodeler/gen10/sim.generated-trips.xml"/>
    </input>

    <output>
        <output-file value="/home/hendrik/CEC/ITSCmap/trafficmodeler/gen10/erlangen.rou.xml"/>
    </output>

    <processing>
        <ignore-errors value="true"/>
        <repair value="true"/>
    </processing>

    <defaults>
        <departlane value="best"/>
        <departpos value="random_free"/>
        <departspeed value="max"/>
    </defaults>

    <time>
        <begin value="0"/>
        <end value="540"/>
    </time>

    <random_number>
        <seed value="1000"/>
    </random_number>

</configuration>
-->

<routes xmlns:xsi="http://www.w3.org/2001/XMLSchema-instance" xsi:noNamespaceSchemaLocation="http://sumo.dlr.de/xsd/routes_file.xsd">
    <vType id="Default" length="5.00" maxSpeed="70.00">
        <carFollowing-Krauss accel="2.60" decel="4.50" sigma="0.50"/>
    </vType>
    <vehicle id="Area Flow 43-82" type="Default" depart="0.00" departLane="best" departPos="random_free" departSpeed="max" color="225,214,104">
        <route edges="-3998612#2 3998612#2 3013106#0 3013106#1 3013106#2 4006702#0 31255203#0 -31241851#2 -31241851#1 -31241851#0 31241816#3 31241835#1 -31241835#1"/>
    </vehicle>
    <vehicle id="Area Flow 44-124" type="Default" depart="0.00" departLane="best" departPos="random_free" departSpeed="max" color="64,33,162">
        <route edges="4006690 -4006690 -4006693#4 -4006693#3 -4006693#2 -4006693#1 -4006693#0 25398494#0 113939242#2 113939241 -37591481 -28269601"/>
    </vehicle>
    <vehicle id="Area Flow 44-57" type="Default" depart="0.00" departLane="best" departPos="random_free" departSpeed="max" color="64,33,162">
        <route edges="4900739#1 4900739#2 4900741 35842306#0 35842306#1 4047446#0 4047446#1 25472079 30405352 30350445 -33174302#1 -33174302#0 -32270595 -29900561#1 -29900561#0 -4006688#4"/>
    </vehicle>
    <vehicle id="Area Flow 43-112" type="Default" depart="1.00" departLane="best" departPos="random_free" departSpeed="max" color="225,214,104">
        <route edges="4006725#0 -4872369 -4006724#1 -4047378 10573414#1 3013106#0 3013106#1 3013106#2 4006702#0 28613737 94344941 94344940#0 -28613727#1 -28613727#0 -28613734"/>
    </vehicle>
    <vehicle id="Area Flow 43-58" type="Default" depart="1.00" departLane="best" departPos="random_free" departSpeed="max" color="225,214,104">
        <route edges="-4006702#0 4006702#0 4006702#1 4900043 4900041#1 4900041#2"/>
    </vehicle>
    <vehicle id="Area Flow 42-138" type="Default" depart="2.00" departLane="best" departPos="random_free" departSpeed="max" color="31,130,193">
        <route edges="-4006684 4006674#3 4006674#4 8403001 -4006688#4 -4006688#3 -4006688#2 -4006688#1 -4006688#0 31401017#1 31401017#2 25398494#0 113939244#1 5445204#1 5445204#2 -5445204#2"/>
    </vehicle>
    <vehicle id="Area Flow 43-48" type="Default" depart="3.00" departLane="best" departPos="random_free" departSpeed="max" color="225,214,104">
        <route edges="4319352#0 4006702#0 4006702#1 4006702#2 -28269598 -4006703#1 4006705#1 4006705#2 -4006705#2"/>
    </vehicle>
    <vehicle id="Area Flow 43-81" type="Default" depart="3.00" departLane="best" departPos="random_free" departSpeed="max" color="225,214,104">
        <route edges="3998615#0 -3998615#0 3013106#2 4006702#0 4006702#1 4006702#2 -28269598 -4006703#1 4006705#1 4006705#2 31720632#0 31720632#1"/>
    </vehicle>
    <vehicle id="Area Flow 43-23" type="Default" depart="4.00" departLane="best" departPos="random_free" departSpeed="max" color="225,214,104">
        <route edges="10573414#0 10573414#1 3013106#0 3013106#1 3013106#2 4006702#0 28613737 94344941 94344940#0 -28613727#1 -28613727#0 -28613734"/>
    </vehicle>
    <vehicle id="Area Flow 43-143" type="Default" depart="5.00" departLane="best" departPos="random_free" departSpeed="max" color="225,214,104">
        <route edges="-3998643#2 3998643#2 30350450#2 4006702#0 4006702#1 4006702#2 -28269598 -4006703#1 4006705#1 4006705#2 -4006705#2"/>
    </vehicle>
    <vehicle id="Area Flow 43-87" type="Default" depart="6.00" departLane="best" departPos="random_free" departSpeed="max" color="225,214,104">
        <route edges="-4099270#0 -4006726#1 -4006726#0 -3998615#0 3013106#2 4006702#0 28613737 94344941 94344940#0 -28613727#1 -28613727#0 -28613734 28613734"/>
    </vehicle>
    <vehicle id="Area Flow 44-81" type="Default" depart="6.00" departLane="best" departPos="random_free" departSpeed="max" color="64,33,162">
        <route edges="23570844#1 23570844#2 10419402 -4006693#1 -23605595 -8403007 -29900564#1 -8402998#2 -8402998#1 -8402997 32270595 -32302591#5 23605600#0"/>
    </vehicle>
    <vehicle id="Area Flow 43-126" type="Default" depart="7.00" departLane="best" departPos="random_free" departSpeed="max" color="225,214,104">
        <route edges="-3998613#0 3998612#0 3998612#1 3998612#2 3013106#0 3013106#1 3013106#2 4006702#0 4006702#1 4006702#2 -28269598 28269598"/>
    </vehicle>
    <vehicle id="Area Flow 43-75" type="Default" depart="7.00" departLane="best" departPos="random_free" departSpeed="max" color="225,214,104">
        <route edges="-31241851#2 31241851#2 -31255203#0 4006702#1 4900043 4900041#1 4900041#2 4900041#3 4900041#0 -4900043"/>
    </vehicle>
    <vehicle id="Area Flow 43-110" type="Default" depart="8.00" departLane="best" departPos="random_free" departSpeed="max" color="225,214,104">
        <route edges="-3998613#1 -3998613#0 3998612#0 3998612#1 3998612#2 3013106#0 3013106#1 3013106#2 4006702#0 28613737 94344941 94344940#0 -94344940#0"/>
    </vehicle>
    <vehicle id="Area Flow 43-135" type="Default" depart="8.00" departLane="best" departPos="random_free" departSpeed="max" color="225,214,104">
        <route edges="-4006725#0 4006725#0 -4872369 -4006724#1 -4047378 10573414#1 3013106#0 3013106#1 3013106#2 4006702#0 4006702#1 4900043 4900041#1 4900041#2 -23350930"/>
    </vehicle>
    <vehicle id="Area Flow 43-2" type="Default" depart="8.00" departLane="best" departPos="random_free" departSpeed="max" color="225,214,104">
        <route edges="3998615#2 -3998615#2 3998643#2 30350450#2 4006702#0 4006702#1 4006702#2"/>
    </vehicle>
    <vehicle id="Area Flow 43-27" type="Default" depart="8.00" departLane="best" departPos="random_free" departSpeed="max" color="225,214,104">
        <route edges="-31255203#1 -31255203#0 4006702#1 4900043 4900041#1 4900041#2 4900041#3 4900041#0"/>
    </vehicle>
    <vehicle id="Area Flow 43-43" type="Default" depart="8.00" departLane="best" departPos="random_free" departSpeed="max" color="225,214,104">
        <route edges="32282774 3998612#0 3998612#1 3998612#2 3013106#0 3013106#1 3013106#2 4006702#0 4006702#1 4006702#2 -28269598 -4006703#1 4006705#1 4006705#2 31720632#0 31720633"/>
    </vehicle>
    <vehicle id="Area Flow 43-97" type="Default" depart="8.00" departLane="best" departPos="random_free" departSpeed="max" color="225,214,104">
        <route edges="10573414#1 3013106#0 3013106#1 3013106#2 4006702#0 4006702#1 4006702#2 -23805514#1 -23805514#0"/>
    </vehicle>
    <vehicle id="Area Flow 42-39" type="Default" depart="9.00" departLane="best" departPos="random_free" departSpeed="max" color="31,130,193">
        <route edges="-29900561#1 -29900561#0 -4006688#4 -4006688#3 -4006688#2 -4006688#1 -4006688#0 31401017#1 31401017#2 -31401017#2"/>
    </vehicle>
    <vehicle id="Area Flow 43-31" type="Default" depart="10.00" departLane="best" departPos="random_free" departSpeed="max" color="225,214,104">
        <route edges="30357194 25472299 30350448 8364476 30350450#0 30350450#1 30350450#2 4006702#0 4006702#1 4006702#2 -28269598 -4006703#1 4006705#1 4006705#2 31720632#0 31720633 -31720633"/>
    </vehicle>
    <vehicle id="Area Flow 43-80" type="Default" depart="10.00" departLane="best" departPos="random_free" departSpeed="max" color="225,214,104">
        <route edges="4319352#1 44069041#0 44069041#1 5931612 30350450#0 30350450#1 30350450#2 4006702#0 31255203#0 -31241851#2 -31241851#1 -31241851#0 31241816#3 31241835#1"/>
    </vehicle>
    <vehicle id="Area Flow 44-119" type="Default" depart="10.00" departLane="best" departPos="random_free" departSpeed="max" color="64,33,162">
        <route edges="23360299 -5445204#1 113939242#1 -25398494#0 -31401017#2 -31401017#1 -31401017#0"/>
    </vehicle>
    <vehicle id="Area Flow 41-3" type="Default" depart="11.00" departLane="best" departPos="random_free" departSpeed="max" color="224,212,1">
        <route edges="4006702#1 -4006702#1 -4006702#0 -3013106#2 3998615#0 4006726#0"/>
    </vehicle>
    <vehicle id="Area Flow 41-74" type="Default" depart="11.00" departLane="best" departPos="random_free" departSpeed="max" color="224,212,1">
        <route edges="-31720632#0 -4006705#2 -4006705#1 4006703#1 28269598 -4006702#2 -4006702#1 31255203#0 -31241851#2 -31241851#1"/>
    </vehicle>
    <vehicle id="Area Flow 43-20" type="Default" depart="11.00" departLane="best" departPos="random_free" departSpeed="max" color="225,214,104">
        <route edges="31241851#2 -31255203#0 28613737 94344941 94344940#0 -28613727#1 -28613727#0 -28613734 28613734"/>
    </vehicle>
    <vehicle id="Area Flow 43-28" type="Default" depart="11.00" departLane="best" departPos="random_free" departSpeed="max" color="225,214,104">
        <route edges="10573414#1 3013106#0 3013106#1 3013106#2 4006702#0 4006702#1 4900043 4900041#1"/>
    </vehicle>
    <vehicle id="Area Flow 43-3" type="Default" depart="11.00" departLane="best" departPos="random_free" departSpeed="max" color="225,214,104">
        <route edges="-3998645#0 3998612#1 3998612#2 3013106#0 3013106#1 3013106#2 4006702#0 31255203#0 -31241851#2 -31241851#1 -31241851#0 -31241848 -31241834#0"/>
    </vehicle>
    <vehicle id="Area Flow 43-56" type="Default" depart="11.00" departLane="best" departPos="random_free" departSpeed="max" color="225,214,104">
        <route edges="4006724#2 3998612#2 3013106#0 3013106#1 3013106#2 4006702#0 4006702#1"/>
    </vehicle>
    <vehicle id="Area Flow 43-129" type="Default" depart="12.00" departLane="best" departPos="random_free" departSpeed="max" color="225,214,104">
        <route edges="3998643#2 30350450#2 4006702#0 28613737 94344941 94344940#0 -28613727#1"/>
    </vehicle>
    <vehicle id="Area Flow 43-15" type="Default" depart="12.00" departLane="best" departPos="random_free" departSpeed="max" color="225,214,104">
        <route edges="3998612#0 3998612#1 3998612#2 3013106#0 3013106#1 3013106#2 4006702#0 28613737 94344941 94344940#0 -28613727#1 -28613727#0"/>
    </vehicle>
    <vehicle id="Area Flow 43-98" type="Default" depart="12.00" departLane="best" departPos="random_free" departSpeed="max" color="225,214,104">
        <route edges="-31255203#1 -31255203#0 4006702#1 4006702#2 -28269598 -4006703#1"/>
    </vehicle>
    <vehicle id="Area Flow 44-130" type="Default" depart="12.00" departLane="best" departPos="random_free" departSpeed="max" color="64,33,162">
        <route edges="85355911#1 30405356 25472079 30405352 30350445 -33174302#1 -33174302#0 -32270595 8402997 -8402998#0"/>
    </vehicle>
    <vehicle id="Area Flow 41-99" type="Default" depart="13.00" departLane="best" departPos="random_free" departSpeed="max" color="224,212,1">
        <route edges="-31720633 -31720632#0 -4006705#2 -4006705#1 4006703#1 28269598 -4006702#2 -4006702#1 -4006702#0 -3013106#2 -3013106#1 -3013106#0 -3998612#2 -3998612#1 -3998612#0 3998613#0 3998653 -3998653"/>
    </vehicle>
    <vehicle id="Area Flow 43-18" type="Default" depart="13.00" departLane="best" departPos="random_free" departSpeed="max" color="225,214,104">
        <route edges="30350450#2 4006702#0 28613737 94344941 94344940#0 -28613727#1 -28613727#0 -28613734"/>
    </vehicle>
    <vehicle id="Area Flow 41-67" type="Default" depart="14.00" departLane="best" departPos="random_free" departSpeed="max" color="224,212,1">
        <route edges="25210699 -4006705#1 4006703#1 28269598 -4006702#2 -4006702#1 -4006702#0 -3013106#2 -3013106#1 -3013107"/>
    </vehicle>
    <vehicle id="Area Flow 43-113" type="Default" depart="14.00" departLane="best" departPos="random_free" departSpeed="max" color="225,214,104">
        <route edges="4006724#0 -4047378 10573414#1 3013106#0 3013106#1 3013106#2 4006702#0 4006702#1 4006702#2 -4006702#2"/>
    </vehicle>
    <vehicle id="Area Flow 41-73" type="Default" depart="15.00" departLane="best" departPos="random_free" departSpeed="max" color="224,212,1">
        <route edges="-23805514#1 23805514#1 -4006702#2 -4006702#1 -4006702#0 -3013106#2 -3013106#1 -3013106#0 -10573414#1 4047378 4006724#1 4872369 -4006725#0"/>
    </vehicle>
    <vehicle id="Area Flow 43-12" type="Default" depart="15.00" departLane="best" departPos="random_free" departSpeed="max" color="225,214,104">
        <route edges="-4006724#1 -4047378 10573414#1 3013106#0 3013106#1 3013106#2 4006702#0 4006702#1 4006702#2 -28269598 -4006703#1 4006705#1"/>
    </vehicle>
    <vehicle id="Area Flow 43-128" type="Default" depart="16.00" departLane="best" departPos="random_free" departSpeed="max" color="225,214,104">
        <route edges="-10573414#1 10573414#1 3013106#0 3013106#1 3013106#2 4006702#0 4006702#1 4900043"/>
    </vehicle>
    <vehicle id="Area Flow 43-138" type="Default" depart="16.00" departLane="best" departPos="random_free" departSpeed="max" color="225,214,104">
        <route edges="-4006726#2 -4006726#1 -4006726#0 -3998615#0 3013106#2 4006702#0 4006702#1 4006702#2 -28269598 -4006703#1"/>
    </vehicle>
    <vehicle id="Area Flow 43-55" type="Default" depart="16.00" departLane="best" departPos="random_free" departSpeed="max" color="225,214,104">
        <route edges="-4006724#2 -4006724#1 -4047378 10573414#1 3013106#0 3013106#1 3013106#2 4006702#0 28613737 94344941 94344940#0 -28613727#1 28631632"/>
    </vehicle>
    <vehicle id="Area Flow 43-72" type="Default" depart="16.00" departLane="best" departPos="random_free" departSpeed="max" color="225,214,104">
        <route edges="-4047378 10573414#1 3013106#0 3013106#1 3013106#2 4006702#0 4006702#1 4006702#2 -28269598 -4006703#1 -4006703#0"/>
    </vehicle>
    <vehicle id="Area Flow 43-83" type="Default" depart="16.00" departLane="best" departPos="random_free" departSpeed="max" color="225,214,104">
        <route edges="3013106#1 3013106#2 4006702#0 4006702#1 4006702#2 -28269598 -4006703#1 -4006703#0"/>
    </vehicle>
    <vehicle id="Area Flow 43-139" type="Default" depart="17.00" departLane="best" departPos="random_free" departSpeed="max" color="225,214,104">
        <route edges="-3998613#1 -3998613#0 3998612#0 3998612#1 3998612#2 3013106#0 3013106#1 3013106#2 4006702#0 4006702#1 4006702#2 -28269598 -4006703#1"/>
    </vehicle>
    <vehicle id="Area Flow 42-22" type="Default" depart="18.00" departLane="best" departPos="random_free" departSpeed="max" color="31,130,193">
        <route edges="4006687 8402997 8402998#1 8402998#2 29900564#1 8403007 23605595"/>
    </vehicle>
    <vehicle id="Area Flow 43-60" type="Default" depart="18.00" departLane="best" departPos="random_free" departSpeed="max" color="225,214,104">
        <route edges="4006702#0 31255203#0 -31241851#2 -31241851#1 -31241851#0 31241816#3 31241835#1 31241834#0"/>
    </vehicle>
    <vehicle id="Area Flow 44-72" type="Default" depart="18.00" departLane="best" departPos="random_free" departSpeed="max" color="64,33,162">
        <route edges="4900739#2 4900741 35842306#0 35842306#1 4047446#0 4047446#1 25472079 30405352 30350445 -33174302#1 -33174302#0 -32270595 -29900561#1 -29900561#0 -8403001 -4006674#4 23605600#1 4006675"/>
    </vehicle>
    <vehicle id="Area Flow 42-38" type="Default" depart="19.00" departLane="best" departPos="random_free" departSpeed="max" color="31,130,193">
        <route edges="-4006675 -23605600#1 4006674#4 8403001 29900561#0 29900561#1 32270595 33174302#0 33174302#1 4686970#0 4686970#1 122161381 30350448 30350449 4047309 30751813 -35842306#1 -35842306#0 -4900741 -4900739#2"/>
    </vehicle>
    <vehicle id="Area Flow 42-41" type="Default" depart="19.00" departLane="best" departPos="random_free" departSpeed="max" color="31,130,193">
        <route edges="-23605600#1 4006674#4 8403001 -4006688#4 -4006688#3 -4006688#2 -4006688#1 -4006688#0 31401017#1 31401017#2 25398494#0 113939244#1"/>
    </vehicle>
    <vehicle id="Area Flow 43-85" type="Default" depart="19.00" departLane="best" departPos="random_free" departSpeed="max" color="225,214,104">
        <route edges="-3998612#0 3998612#0 3998612#1 3998612#2 3013106#0 3013106#1 3013106#2 4006702#0 4006702#1 4900043 4900041#1 4900041#2 4900041#3 4900041#0"/>
    </vehicle>
    <vehicle id="Area Flow 43-106" type="Default" depart="20.00" departLane="best" departPos="random_free" departSpeed="max" color="225,214,104">
        <route edges="-31255203#1 -31255203#0 4006702#1 4006702#2 -28269598 -4006703#1 4006705#1 4006705#2 31720632#0"/>
    </vehicle>
    <vehicle id="Area Flow 41-110" type="Default" depart="21.00" departLane="best" departPos="random_free" departSpeed="max" color="224,212,1">
        <route edges="-23805514#0 23805514#0 23805514#1 -4006702#2 -4006702#1 -4006702#0 -3013106#2 -3013106#1 -3013107"/>
    </vehicle>
    <vehicle id="Area Flow 43-7" type="Default" depart="21.00" departLane="best" departPos="random_free" departSpeed="max" color="225,214,104">
        <route edges="-4006724#0 4006724#0 -4047378 10573414#1 3013106#0 3013106#1 3013106#2 4006702#0 4006702#1 4006702#2 -28269598 -4006703#1 4006705#1 -25210699"/>
    </vehicle>
    <vehicle id="Area Flow 42-109" type="Default" depart="22.00" departLane="best" departPos="random_free" departSpeed="max" color="31,130,193">
        <route edges="25472101 30405352 30350445 -33174302#1 -33174302#0 -32270595 8402997 8402998#1 8402998#2 29900564#1 8403007 23605595 4006693#1 -10419402 -23570844#2"/>
    </vehicle>
    <vehicle id="Area Flow 43-118" type="Default" depart="23.00" departLane="best" departPos="random_free" departSpeed="max" color="225,214,104">
        <route edges="-3998612#1 3998612#1 3998612#2 3013106#0 3013106#1 3013106#2 4006702#0 4006702#1 4900043 4900041#1 4900041#2"/>
    </vehicle>
    <vehicle id="Area Flow 43-70" type="Default" depart="23.00" departLane="best" departPos="random_free" departSpeed="max" color="225,214,104">
        <route edges="-3998613#0 3998612#0 3998612#1 3998612#2 3013106#0 3013106#1 3013106#2 4006702#0 4006702#1"/>
    </vehicle>
    <vehicle id="Area Flow 41-123" type="Default" depart="24.00" departLane="best" departPos="random_free" departSpeed="max" color="224,212,1">
        <route edges="-31720633 -31720632#0 -4006705#2 -4006705#1 4006703#1 28269598 -4006702#2 -4006702#1 -4006702#0 -3013106#2 3998615#0 3998615#1 3998615#2 4099270#1"/>
    </vehicle>
    <vehicle id="Area Flow 43-91" type="Default" depart="24.00" departLane="best" departPos="random_free" departSpeed="max" color="225,214,104">
        <route edges="-3013106#0 3013106#0 3013106#1 3013106#2 4006702#0 4006702#1 -4006702#1"/>
    </vehicle>
    <vehicle id="Area Flow 43-22" type="Default" depart="25.00" departLane="best" departPos="random_free" departSpeed="max" color="225,214,104">
        <route edges="-3998643#0 3998612#2 3013106#0 3013106#1 3013106#2 4006702#0 28613737 94344941 94344940#0 -28613727#1 28631632 -28631632"/>
    </vehicle>
    <vehicle id="Area Flow 41-10" type="Default" depart="26.00" departLane="best" departPos="random_free" departSpeed="max" color="224,212,1">
        <route edges="-31720632#1 -31720632#0 -4006705#2 -4006705#1 4006703#1 28269598 -4006702#2 -4006702#1 31255203#0 -31241851#2 -31241853#2 -31241838#0"/>
    </vehicle>
    <vehicle id="Area Flow 43-148" type="Default" depart="26.00" departLane="best" departPos="random_free" departSpeed="max" color="225,214,104">
        <route edges="3013109 3013107 3013106#1 3013106#2 4006702#0 4006702#1 4006702#2 4006701"/>
    </vehicle>
    <vehicle id="Area Flow 43-45" type="Default" depart="27.00" departLane="best" departPos="random_free" departSpeed="max" color="225,214,104">
        <route edges="4319352#1 44069041#0 44069041#1 5931612 30350450#0 30350450#1 30350450#2 4006702#0 4006702#1 4006702#2 -28269598 -4006703#1 4006705#1 4006705#2 31720632#0"/>
    </vehicle>
    <vehicle id="Area Flow 41-7" type="Default" depart="28.00" departLane="best" departPos="random_free" departSpeed="max" color="224,212,1">
        <route edges="23805514#0 23805514#1 -4006702#2 -4006702#1 -4006702#0 -3013106#2 -3013106#1 -3013106#0 -10573414#1 4047378 4006724#1 -4006724#1"/>
    </vehicle>
    <vehicle id="Area Flow 42-128" type="Default" depart="28.00" departLane="best" departPos="random_free" departSpeed="max" color="31,130,193">
        <route edges="31982182#0 4047241 4797872 4797871 4006668 126606716 113939242#0 113939242#1 -25398494#0 4006693#0 4006693#1 4006693#2 4006693#3 4006693#4 --5558"/>
    </vehicle>
    <vehicle id="Area Flow 43-0" type="Default" depart="28.00" departLane="best" departPos="random_free" departSpeed="max" color="225,214,104">
        <route edges="3998612#2 3013106#0 3013106#1 3013106#2 4006702#0 31255203#0 -31241851#2 -31241851#1 -31241851#0 31241816#3 31241835#1"/>
    </vehicle>
    <vehicle id="Area Flow 41-5" type="Default" depart="29.00" departLane="best" departPos="random_free" departSpeed="max" color="224,212,1">
        <route edges="-4006705#2 -4006705#1 4006703#1 28269598 -4006702#2 -4006702#1 -4006702#0 -3013106#2 -3013106#1 -3013106#0 -10573414#1 4047378 4006724#1 4872369"/>
    </vehicle>
    <vehicle id="Area Flow 43-93" type="Default" depart="29.00" departLane="best" departPos="random_free" departSpeed="max" color="225,214,104">
        <route edges="3998612#1 3998612#2 3013106#0 3013106#1 3013106#2 4006702#0 4006702#1"/>
    </vehicle>
    <vehicle id="Area Flow 44-86" type="Default" depart="29.00" departLane="best" departPos="random_free" departSpeed="max" color="64,33,162">
        <route edges="-23360299 23360299 -5445204#1 113939242#1 -25398494#0 -31401017#2 -31401017#1 -31401017#0 -29900567 -31401018 -4047532 -32270592#1 32270592#1"/>
    </vehicle>
    <vehicle id="Area Flow 42-49" type="Default" depart="30.00" departLane="best" departPos="random_free" departSpeed="max" color="31,130,193">
        <route edges="-32302591#0 32302591#0 32302591#1 32302591#2 32302591#3 32302591#4 32302591#5 33174302#0 33174302#1 4686970#0 4686970#1 122161381 30350448 30350449 4400949 31982182#0 4047241 4797872 4797871 4006668 -4006668"/>
    </vehicle>
    <vehicle id="Area Flow 42-75" type="Default" depart="30.00" departLane="best" departPos="random_free" departSpeed="max" color="31,130,193">
        <route edges="4006693#1 -4006693#1 -23605595 -8403007 -29900564#1 -8402998#2 -8402998#1 -8402997 32270595 33174302#0 33174302#1 4686970#0 4686970#1 122161381 30350448 30350449"/>
    </vehicle>
    <vehicle id="Area Flow 44-92" type="Default" depart="30.00" departLane="best" departPos="random_free" departSpeed="max" color="64,33,162">
        <route edges="-4006693#3 10425128#0 10425128#1 -29900564#3 -29900564#2 -29900564#1 29900564#1"/>
    </vehicle>
    <vehicle id="Area Flow 43-47" type="Default" depart="31.00" departLane="best" departPos="random_free" departSpeed="max" color="225,214,104">
        <route edges="3998645#2 30350450#1 30350450#2 4006702#0 28613737 94344941 94344940#0 -28613727#1"/>
    </vehicle>
    <vehicle id="Area Flow 43-62" type="Default" depart="31.00" departLane="best" departPos="random_free" departSpeed="max" color="225,214,104">
        <route edges="4099270#1 -4099270#1 -3998615#2 3998643#2 30350450#2 4006702#0 4006702#1 4900043 4900041#1 4900041#2 4900041#3 4900041#0"/>
    </vehicle>
    <vehicle id="Area Flow 44-69" type="Default" depart="31.00" departLane="best" departPos="random_free" departSpeed="max" color="64,33,162">
        <route edges="5445204#2 -5445204#2 -5445204#1 113939242#1 -25398494#0 -31401017#2 -31401017#1"/>
    </vehicle>
    <vehicle id="Area Flow 44-120" type="Default" depart="32.00" departLane="best" departPos="random_free" departSpeed="max" color="64,33,162">
        <route edges="-29900564#3 -4006691 29900565#1 29900565#2"/>
    </vehicle>
    <vehicle id="Area Flow 43-101" type="Default" depart="33.00" departLane="best" departPos="random_free" departSpeed="max" color="225,214,104">
        <route edges="30350450#2 4006702#0 28613737 94344941 94344940#0 -28613727#1 28631632"/>
    </vehicle>
    <vehicle id="Area Flow 43-13" type="Default" depart="33.00" departLane="best" departPos="random_free" departSpeed="max" color="225,214,104">
        <route edges="4006724#2 3998612#2 3013106#0 3013106#1 3013106#2 4006702#0 31255203#0 -31241851#2 -31241851#1 -31241851#0 31241816#3 31241835#1 31241834#0"/>
    </vehicle>
    <vehicle id="Area Flow 44-77" type="Default" depart="33.00" departLane="best" departPos="random_free" departSpeed="max" color="64,33,162">
        <route edges="31777493#1 35842306#0 35842306#1 4047446#0 4047446#1 25472079 30405352 30350445 -33174302#1 -33174302#0 -32270595 32270595"/>
    </vehicle>
    <vehicle id="Area Flow 42-110" type="Default" depart="34.00" departLane="best" departPos="random_free" departSpeed="max" color="31,130,193">
        <route edges="4006683 4006674#2 4006674#3 4006674#4 8403001 29900564#0 29900564#1 8403007 -8403007"/>
    </vehicle>
    <vehicle id="Area Flow 42-134" type="Default" depart="34.00" departLane="best" departPos="random_free" departSpeed="max" color="31,130,193">
        <route edges="-29900561#1 29900561#1 32270595 33174302#0 33174302#1 4686970#0 4686970#1 122161381 30350448 30350449 4400949 31982182#0 4047241 4797872 4797871 4006668 23339459 30405358#1 85355912 85355911#0 25472101"/>
    </vehicle>
    <vehicle id="Area Flow 42-47" type="Default" depart="34.00" departLane="best" departPos="random_free" departSpeed="max" color="31,130,193">
        <route edges="4006674#2 4006674#3 4006674#4 8403001 29900564#0 29900564#1 29900564#2 29900564#3 -10425128#1 -10425128#0 -4006693#2"/>
    </vehicle>
    <vehicle id="Area Flow 43-104" type="Default" depart="34.00" departLane="best" departPos="random_free" departSpeed="max" color="225,214,104">
        <route edges="-30357194 3998612#0 3998612#1 3998612#2 3013106#0 3013106#1 3013106#2 4006702#0 31255203#0 -31241851#2 -31241851#1 -31241851#0 -31241848 -31241834#0"/>
    </vehicle>
    <vehicle id="Area Flow 43-123" type="Default" depart="34.00" departLane="best" departPos="random_free" departSpeed="max" color="225,214,104">
        <route edges="-3998653 -3998613#0 3998612#0 3998612#1 3998612#2 3013106#0 3013106#1 3013106#2 4006702#0 4006702#1 4006702#2 -28269598 -4006703#1 -4006705#0 4006705#0"/>
    </vehicle>
    <vehicle id="Area Flow 43-32" type="Default" depart="34.00" departLane="best" departPos="random_free" departSpeed="max" color="225,214,104">
        <route edges="-3998643#2 3998643#2 30350450#2 4006702#0 28613737 94344941 94344940#0 -28613727#1 28631632 -28631632"/>
    </vehicle>
    <vehicle id="Area Flow 43-9" type="Default" depart="34.00" departLane="best" departPos="random_free" departSpeed="max" color="225,214,104">
        <route edges="3998645#2 30350450#1 30350450#2 4006702#0 28613737 94344941 94344940#0 -28613727#1 -28613727#0 -28613734 28613734"/>
    </vehicle>
    <vehicle id="Area Flow 41-1" type="Default" depart="36.00" departLane="best" departPos="random_free" departSpeed="max" color="224,212,1">
        <route edges="28613734 28613727#0 28613727#1 -94344940#0 28768072 -28613737 -4006702#0 -3013106#2 3998615#0 3998615#1 -3998615#1"/>
    </vehicle>
    <vehicle id="Area Flow 43-37" type="Default" depart="36.00" departLane="best" departPos="random_free" departSpeed="max" color="225,214,104">
        <route edges="3013106#1 3013106#2 4006702#0 4006702#1 4900043 4900041#1 4900041#2"/>
    </vehicle>
    <vehicle id="Area Flow 43-42" type="Default" depart="36.00" departLane="best" departPos="random_free" departSpeed="max" color="225,214,104">
        <route edges="4006724#0 -4047378 10573414#1 3013106#0 3013106#1 3013106#2 4006702#0 4006702#1 4900043 4900041#1 4900041#2 -23350930"/>
    </vehicle>
    <vehicle id="Area Flow 43-44" type="Default" depart="36.00" departLane="best" departPos="random_free" departSpeed="max" color="225,214,104">
        <route edges="-3998615#2 3998643#2 30350450#2 4006702#0 4006702#1 4900043 4900041#1 4900041#2 4900041#3 4900041#0"/>
    </vehicle>
    <vehicle id="Area Flow 43-73" type="Default" depart="37.00" departLane="best" departPos="random_free" departSpeed="max" color="225,214,104">
        <route edges="10573414#1 3013106#0 3013106#1 3013106#2 4006702#0 4006702#1 4006702#2 -23805514#1 -32611578 32611578"/>
    </vehicle>
    <vehicle id="Area Flow 43-90" type="Default" depart="37.00" departLane="best" departPos="random_free" departSpeed="max" color="225,214,104">
        <route edges="10573414#1 3013106#0 3013106#1 3013106#2 4006702#0 4006702#1 4006702#2 -28269598 -4006703#1 4006705#1 4006705#2 31720632#0 31720633 -31720633"/>
    </vehicle>
    <vehicle id="Area Flow 43-119" type="Default" depart="39.00" departLane="best" departPos="random_free" departSpeed="max" color="225,214,104">
        <route edges="-31241851#2 31241851#2 -31255203#0 4006702#1 4006702#2 -23805514#1 23805514#1"/>
    </vehicle>
    <vehicle id="Area Flow 43-51" type="Default" depart="39.00" departLane="best" departPos="random_free" departSpeed="max" color="225,214,104">
        <route edges="3998643#0 -4006726#0 -3998615#0 3013106#2 4006702#0 4006702#1"/>
    </vehicle>