<?xml version="1.0" encoding="UTF-8"?>

<!-- generated on Sun Feb 15 13:39:51 2015 by SUMO duarouter Version 0.22.0
<?xml version="1.0" encoding="UTF-8"?>

<configuration xmlns:xsi="http://www.w3.org/2001/XMLSchema-instance" xsi:noNamespaceSchemaLocation="http://sumo.dlr.de/xsd/duarouterConfiguration.xsd">

    <input>
        <net-file value="/home/hendrik/CEC/ITSCmap/trafficmodeler/gen4/erlangen.net.xml"/>
        <trip-files value="/home/hendrik/CEC/ITSCmap/trafficmodeler/gen4/sim.generated-trips.xml"/>
    </input>

    <output>
        <output-file value="/home/hendrik/CEC/ITSCmap/trafficmodeler/gen4/erlangen.rou.xml"/>
    </output>

    <processing>
        <ignore-errors value="true"/>
        <repair value="true"/>
    </processing>

    <defaults>
        <departlane value="best"/>
        <departpos value="random_free"/>
        <departspeed value="max"/>
    </defaults>

    <time>
        <begin value="0"/>
        <end value="540"/>
    </time>

    <random_number>
        <seed value="1000"/>
    </random_number>

</configuration>
-->

<routes xmlns:xsi="http://www.w3.org/2001/XMLSchema-instance" xsi:noNamespaceSchemaLocation="http://sumo.dlr.de/xsd/routes_file.xsd">
    <vType id="Default" length="5.00" maxSpeed="70.00">
        <carFollowing-Krauss accel="2.60" decel="4.50" sigma="0.50"/>
    </vType>
    <vehicle id="Hotspot 29-Out-75" type="Default" depart="0.00" departLane="best" departPos="random_free" departSpeed="max" color="105,221,60">
        <route edges="25472129 31982182#0 4047241 4797872 4797871 4006668 23339459 30405358#1 85355912 85355911#0 85355911#1 30405356 5931612 30350450#0 30350450#1 30350450#2 4006702#0 31255203#0 31255203#1"/>
    </vehicle>
    <vehicle id="Hotspot 30-Out-6" type="Default" depart="0.00" departLane="best" departPos="random_free" departSpeed="max" color="194,125,241">
        <route edges="31241848 31241851#0 31241851#1 31241851#2 -31255203#0 -4006702#0 -3013106#2 -3013106#1 -3013106#0 -3998612#2 -4006724#2"/>
    </vehicle>
    <vehicle id="Hotspot 30-Out-76" type="Default" depart="0.00" departLane="best" departPos="random_free" departSpeed="max" color="194,125,241">
        <route edges="-31241838#0 -31255203#1 -31255203#0 -4006702#0 -3013106#2 -3013106#1 -3013106#0 -10573414#1 4047378 4006724#1"/>
    </vehicle>
    <vehicle id="Hotspot 30-Out-169" type="Default" depart="2.00" departLane="best" departPos="random_free" departSpeed="max" color="194,125,241">
        <route edges="31241851#0 31241851#1 31241851#2 -31255203#0 -4006702#0 -3013106#2 3998615#0 3998615#1 3998643#2 -3998643#2"/>
    </vehicle>
    <vehicle id="Hotspot 30-Out-225" type="Default" depart="2.00" departLane="best" departPos="random_free" departSpeed="max" color="194,125,241">
        <route edges="4319352#0 4319352#1 44069041#0 44069041#1 25472079 30405352 30350445 -33174302#1 -33174302#0 -32270595 -29900561#1 -29900561#0 -8403001 -4006674#4 -4006674#3 -4006674#2 -4006674#1 -4006674#0 -4006672"/>
    </vehicle>
    <vehicle id="Hotspot 29-Out-88" type="Default" depart="3.00" departLane="best" departPos="random_free" departSpeed="max" color="105,221,60">
        <route edges="26188722 -26188722 35842306#1 4047446#0 4047446#1 25472079 30405352 30350445 -33174302#1 -33174302#0 -32302591#5 -32302591#4 4006676"/>
    </vehicle>
    <vehicle id="Hotspot 29-Out-50" type="Default" depart="5.00" departLane="best" departPos="random_free" departSpeed="max" color="105,221,60">
        <route edges="30350450#0 30350450#1 30350450#2 4006702#0 4006702#1 4006702#2 4006701 -4006701"/>
    </vehicle>
    <vehicle id="Hotspot 30-Out-69" type="Default" depart="5.00" departLane="best" departPos="random_free" departSpeed="max" color="194,125,241">
        <route edges="31241835#1 -31241835#1 -31241816#3 31241851#0 31241851#1 31241851#2 -31255203#0 -4006702#0 4319352#1 44069041#0 44069041#1 25472079 30405352 30350445 -33174302#1 -33174302#0 -32270595 -29900561#1 -29900561#0 -8403001 -4006674#4 -4006674#3 -4006674#2 -4006683"/>
    </vehicle>
    <vehicle id="Hotspot 30-Out-202" type="Default" depart="6.00" departLane="best" departPos="random_free" departSpeed="max" color="194,125,241">
        <route edges="-4006702#1 -4006702#0 4319352#1 44069041#0 44069041#1 4400949 31982182#0 4047241 4797872 4797871 4006668 126606716 113939242#0 5445204#1 5445204#2 39539626"/>
    </vehicle>
    <vehicle id="Hotspot 29-Out-120" type="Default" depart="7.00" departLane="best" departPos="random_free" departSpeed="max" color="105,221,60">
        <route edges="4400949 31982182#0 4047241 4797872 4797871 4006668 23339459 30405358#1 85355912 85355911#0 85355911#1 30405356 5931612 30350450#0 30350450#1 30350450#2 4006702#0 4006702#1 4006702#2 -23805514#1 23805514#1"/>
    </vehicle>
    <vehicle id="Hotspot 30-Out-94" type="Default" depart="9.00" departLane="best" departPos="random_free" departSpeed="max" color="194,125,241">
        <route edges="31241848 31241851#0 31241851#1 31241851#2 -31255203#0 -4006702#0 4319352#1 44069041#0 25472134 30751813 -35842306#1 -35842306#0 -31777493#1 -31777493#0 -4047316"/>
    </vehicle>
    <vehicle id="Hotspot 30-Out-11" type="Default" depart="12.00" departLane="best" departPos="random_free" departSpeed="max" color="194,125,241">
        <route edges="-31255203#0 -4006702#0 -3013106#2 -3013106#1 -3013106#0 -3998612#2 -3998612#1 -3998612#0 3998613#0 3998613#1"/>
    </vehicle>
    <vehicle id="Hotspot 30-Out-257" type="Default" depart="18.00" departLane="best" departPos="random_free" departSpeed="max" color="194,125,241">
        <route edges="31241853#1 -31241838#0 -31255203#1 -31255203#0 -4006702#0 4319352#1 44069041#0 44069041#1 25472079 30405352 30350445 -33174302#1 -33174302#0 -32270595 -29900561#1 -29900561#0 -4006688#4 -4006688#3 -4006688#2 -4006688#1 10712011 -10712011"/>
    </vehicle>
    <vehicle id="Hotspot 29-Out-52" type="Default" depart="19.00" departLane="best" departPos="random_free" departSpeed="max" color="105,221,60">
        <route edges="30350448 8364476 30350450#0 30350450#1 30350450#2 4319353"/>
    </vehicle>
    <vehicle id="Hotspot 30-Out-239" type="Default" depart="20.00" departLane="best" departPos="random_free" departSpeed="max" color="194,125,241">
        <route edges="-31241834#0 -31241835#1 -31241816#3 31241851#0 31241851#1 31241851#2 -31255203#0 -4006702#0 -3013106#2 -3013106#1 -3013106#0 -3998612#2 -3998612#1 -3998612#0 -32282774 32282774"/>
    </vehicle>
    <vehicle id="Hotspot 30-Out-245" type="Default" depart="21.00" departLane="best" departPos="random_free" departSpeed="max" color="194,125,241">
        <route edges="4900041#0 -4900043 -4006702#1 -4006702#0 4319352#1 44069041#0 44069041#1 25472079 30405352 30350445 -33174302#1 -33174302#0 -32270595 -29900561#1 -29900561#0 -8403001 -4006674#4 -4006674#3 -4006674#2 4006674#2"/>
    </vehicle>
    <vehicle id="Hotspot 29-Out-125" type="Default" depart="26.00" departLane="best" departPos="random_free" departSpeed="max" color="105,221,60">
        <route edges="25472257 25472299 30350448 8364476 30350450#0 30350450#1 30350450#2 -3013106#2 -3013106#1 -3013106#0"/>
    </vehicle>
    <vehicle id="Hotspot 29-Out-6" type="Default" depart="28.00" departLane="best" departPos="random_free" departSpeed="max" color="105,221,60">
        <route edges="31982182#0 4047241 4797872 4797871 4006668 23339459 30405358#1 85355912 85355911#0 85355911#1 30405356 5931612 30350450#0 30350450#1 30350450#2 4006702#0 4006702#1 -4006702#1"/>
    </vehicle>
    <vehicle id="Hotspot 29-Out-7" type="Default" depart="28.00" departLane="best" departPos="random_free" departSpeed="max" color="105,221,60">
        <route edges="19796637 122161381 30350448 8364476 30350450#0 30350450#1 30350450#2 4006702#0 31255203#0 -31241851#2 -31241851#1 -31241851#0 -31241848 -31241834#0"/>
    </vehicle>
    <vehicle id="Hotspot 29-Out-12" type="Default" depart="29.00" departLane="best" departPos="random_free" departSpeed="max" color="105,221,60">
        <route edges="4047309 30751813 4047446#0 4047446#1 25472079 30405352 30350445 -33174302#1 -33174302#0 -32302591#5 -32302591#4 -32302591#3 -4006684"/>
    </vehicle>
    <vehicle id="Hotspot 30-Out-77" type="Default" depart="29.00" departLane="best" departPos="random_free" departSpeed="max" color="194,125,241">
        <route edges="-31241853#0 31241853#0 31241853#1 -31241838#0 -31255203#1 -31255203#0 -4006702#0 -3013106#2 -3013106#1 -3013106#0 -10573414#1 4047378 -4006724#0"/>
    </vehicle>
    <vehicle id="Hotspot 30-Out-141" type="Default" depart="30.00" departLane="best" departPos="random_free" departSpeed="max" color="194,125,241">
        <route edges="31241838#0 -31241838#0 -31255203#1 -31255203#0 -4006702#0 -3013106#2 3998615#0 3998615#1 -3998643#1"/>
    </vehicle>
    <vehicle id="Hotspot 30-Out-82" type="Default" depart="31.00" departLane="best" departPos="random_free" departSpeed="max" color="194,125,241">
        <route edges="-4900043 -4006702#1 -4006702#0 4319352#1 44069041#0 44069041#1 25472079 30405352 30350445 31353573#0"/>
    </vehicle>
    <vehicle id="Hotspot 29-Out-49" type="Default" depart="32.00" departLane="best" departPos="random_free" departSpeed="max" color="105,221,60">
        <route edges="25472079 30405352 19796637 122161381 30350448 8364476 30350450#0 30350450#1 30350450#2 4006702#0 4006702#1 4006702#2 4006701 -4006701"/>
    </vehicle>
    <vehicle id="Hotspot 30-Out-83" type="Default" depart="33.00" departLane="best" departPos="random_free" departSpeed="max" color="194,125,241">
        <route edges="-31241853#1 31241853#1 -31241838#0 -31255203#1 -31255203#0 -4006702#0 -3013106#2 -3013106#1 -3013106#0 -3998612#2 -3998612#1 -4006725#1"/>
    </vehicle>
    <vehicle id="Hotspot 29-Out-84" type="Default" depart="34.00" departLane="best" departPos="random_free" departSpeed="max" color="105,221,60">
        <route edges="5931612 30350450#0 30350450#1 30350450#2 4006702#0 31255203#0"/>
    </vehicle>
    <vehicle id="Hotspot 29-Out-149" type="Default" depart="35.00" departLane="best" departPos="random_free" departSpeed="max" color="105,221,60">
        <route edges="85355911#0 85355911#1 30405356 5931612 30350450#0 30350450#1 -3998643#2"/>
    </vehicle>
    <vehicle id="Hotspot 29-Out-73" type="Default" depart="35.00" departLane="best" departPos="random_free" departSpeed="max" color="105,221,60">
        <route edges="30405352 30350445 -33174302#1 -33174302#0 33174302#0"/>
    </vehicle>
    <vehicle id="Hotspot 29-Out-20" type="Default" depart="39.00" departLane="best" departPos="random_free" departSpeed="max" color="105,221,60">
        <route edges="30350445 4686970#0 4686970#1 122161381 30350448 8364476 30350450#0 30350450#1 30350450#2 4006702#0 4006702#1 4006702#2 -28269598 -4006703#1 -4006703#0"/>
    </vehicle>
    <vehicle id="Hotspot 30-Out-206" type="Default" depart="39.00" departLane="best" departPos="random_free" departSpeed="max" color="194,125,241">
        <route edges="-3013106#2 3013106#2 4319352#1 44069041#0 44069041#1 25472079 30405352 30350445 -33174302#1 -33174302#0 -32270595 -29900561#1 -29900561#0 -8403001 -4006674#4 -4006674#3 -4006674#2 -4006674#1 -4006682"/>
    </vehicle>
    <vehicle id="Hotspot 29-Out-114" type="Default" depart="40.00" departLane="best" departPos="random_free" departSpeed="max" color="105,221,60">
        <route edges="-26188722 35842306#1 4047446#0 4047446#1 25472079 30405352 30350445 -33174302#1 -33174302#0 -32270595 8402997 8402998#1 8402998#2 29900564#1 29900564#2 29900564#3 29900564#4"/>
    </vehicle>
    <vehicle id="Hotspot 30-Out-269" type="Default" depart="41.00" departLane="best" departPos="random_free" departSpeed="max" color="194,125,241">
        <route edges="4319352#1 44069041#0 44069041#1 25472079 30405352 30350445 -33174302#1 -33174302#0 -32302591#5 -32302591#4 -32302591#3 -32302591#2 -32302591#1 -32302591#0 4006672"/>
    </vehicle>
    <vehicle id="Hotspot 29-Out-45" type="Default" depart="44.00" departLane="best" departPos="random_free" departSpeed="max" color="105,221,60">
        <route edges="44069041#1 5931612 30350450#0 30350450#1 30350450#2 4006702#0 4006702#1 4006702#2 -28269598 -4006703#1 4006705#1 4006705#2 31720632#0"/>
    </vehicle>
    <vehicle id="Hotspot 30-Out-264" type="Default" depart="44.00" departLane="best" departPos="random_free" departSpeed="max" color="194,125,241">
        <route edges="-31255203#1 -31255203#0 -4006702#0 -3013106#2 -3013106#1 -3013107 3013107"/>
    </vehicle>
    <vehicle id="Hotspot 29-Out-36" type="Default" depart="46.00" departLane="best" departPos="random_free" departSpeed="max" color="105,221,60">
        <route edges="4047309 30751813 4047446#0 4047446#1 25472079 30405352 30350445 -33174302#1 -33174302#0 -32270595 -29900561#1 -29900561#0 -4006688#4 -4006688#3 -4006688#2 -4006688#1 -4006688#0 -31401017#0 -29900567 -23605600#2"/>
    </vehicle>
    <vehicle id="Hotspot 29-Out-111" type="Default" depart="47.00" departLane="best" departPos="random_free" departSpeed="max" color="105,221,60">
        <route edges="85355912 85355911#0 85355911#1 30405356 4047309 30751813 -35842306#1 -35842306#0 -31777493#1 -31777493#0 31777493#0"/>
    </vehicle>
    <vehicle id="Hotspot 30-Out-142" type="Default" depart="47.00" departLane="best" departPos="random_free" departSpeed="max" color="194,125,241">
        <route edges="31241816#1 31241851#0 31241851#1 31241851#2 -31255203#0 -4006702#0 4319352#1 44069041#0 44069041#1 25472079 30405352 30350445 -33174302#1 -33174302#0 -32270595 8402997 8402998#1 8402998#2 8402998#3"/>
    </vehicle>
    <vehicle id="Hotspot 29-Out-138" type="Default" depart="52.00" departLane="best" departPos="random_free" departSpeed="max" color="105,221,60">
        <route edges="30405352 30350445 -33174302#1 -33174302#0 -32270595 -29900561#1 -29900561#0 -4006688#4 -4006688#3 -4006688#2 10425130"/>
    </vehicle>
    <vehicle id="Hotspot 30-Out-242" type="Default" depart="53.00" departLane="best" departPos="random_free" departSpeed="max" color="194,125,241">
        <route edges="-31241816#1 31241816#1 31241851#0 31241851#1 31241851#2 -31255203#0 -4006702#0 4319352#1 44069041#0 44069041#1 25472079 30405352 30350445 -33174302#1 -33174302#0 -32302591#5 -32302591#4 -32302591#3 -32302591#2 -32302591#1 -32302591#0 4006672"/>
    </vehicle>
    <vehicle id="Hotspot 30-Out-24" type="Default" depart="54.00" departLane="best" departPos="random_free" departSpeed="max" color="194,125,241">
        <route edges="-28613737 -4006702#0 4319352#1 44069041#0 44069041#1 25472079 30405352 19796637 122161381 30350448 8364476"/>
    </vehicle>
    <vehicle id="Hotspot 30-Out-258" type="Default" depart="55.00" departLane="best" departPos="random_free" departSpeed="max" color="194,125,241">
        <route edges="4006702#2 -4006702#2 -4006702#1 -4006702#0 4319352#1 44069041#0 44069041#1 25472079 30405352 30350445 -33174302#1 -33174302#0 -32270595 8402997 8402998#1 8402998#2 29900564#1 29900564#2 -4006691"/>
    </vehicle>
    <vehicle id="Hotspot 30-Out-164" type="Default" depart="56.00" departLane="best" departPos="random_free" departSpeed="max" color="194,125,241">
        <route edges="31241855#1 31241853#1 -31241838#0 -31255203#1 -31255203#0 -4006702#0 4319352#1 44069041#0 44069041#1 4400949 31982182#0 4047241 4797872 4797871 4006668 23339459 30405358#1 85355912 85355911#0"/>
    </vehicle>
    <vehicle id="Hotspot 30-Out-30" type="Default" depart="56.00" departLane="best" departPos="random_free" departSpeed="max" color="194,125,241">
        <route edges="-31241816#0 31241816#0 31241816#1 31241851#0 31241851#1 31241851#2 -31255203#0 -4006702#0 4319352#1 44069041#0 44069041#1 25472079 30405352 30350445 -33174302#1 -33174302#0 -32270595 -29900561#1 -29900561#0 -4006688#4 -4006688#3 -4006688#2 -4006688#1 -4006688#0 -31401017#0 -29900567"/>
    </vehicle>
    <vehicle id="Hotspot 29-Out-101" type="Default" depart="59.00" departLane="best" departPos="random_free" departSpeed="max" color="105,221,60">
        <route edges="30350450#0 30350450#1 30350450#2 4319352#1 44069041#0 44069041#1 4400949 31982182#0 4047241 4797872 4797871 4006668 126606716 113939242#0 113939242#1 113939242#2 113939244#0"/>
    </vehicle>
    <vehicle id="Hotspot 29-Out-13" type="Default" depart="60.00" departLane="best" departPos="random_free" departSpeed="max" color="105,221,60">
        <route edges="8364476 30350450#0 30350450#1 30350450#2 4319352#1 44069041#0 25472134 30751813 -35842306#1 -35842306#0 -4900741 -4900739#2 4690348 -4690348"/>
    </vehicle>
    <vehicle id="Hotspot 30-Out-109" type="Default" depart="61.00" departLane="best" departPos="random_free" departSpeed="max" color="194,125,241">
        <route edges="3013106#2 4319352#1 44069041#0 44069041#1 25472079 30405352 30350445 -33174302#1 -33174302#0 -32302591#5 -32302591#4 4006676"/>
    </vehicle>
    <vehicle id="Hotspot 30-Out-121" type="Default" depart="61.00" departLane="best" departPos="random_free" departSpeed="max" color="194,125,241">
        <route edges="3013106#2 4006702#0 28613737 94344941 94344940#0 94344940#2 94344940#3 -94344940#3"/>
    </vehicle>
    <vehicle id="Hotspot 30-Out-286" type="Default" depart="62.00" departLane="best" departPos="random_free" departSpeed="max" color="194,125,241">
        <route edges="31241848 31241851#0 31241851#1 31241851#2 -31255203#0 28613737 94344941 94344940#0 -28613727#1 28631632 -28631632"/>
    </vehicle>
    <vehicle id="Hotspot 30-Out-221" type="Default" depart="66.00" departLane="best" departPos="random_free" departSpeed="max" color="194,125,241">
        <route edges="-23350930 23350930 4900041#3 4900041#0 -4900043 -4006702#1 -4006702#0 4319352#1 44069041#0 44069041#1 25472079 30405352 30350445 -33174302#1 -33174302#0 -32270595 -29900561#1 -29900561#0 -4006688#4"/>
    </vehicle>
    <vehicle id="Hotspot 30-Out-174" type="Default" depart="68.00" departLane="best" departPos="random_free" departSpeed="max" color="194,125,241">
        <route edges="31241855#0 31241816#0 31241816#1 31241851#0 31241851#1 31241851#2 -31255203#0 -4006702#0 4319352#1 44069041#0 44069041#1 25472079 30405352 30350445 -33174302#1 -33174302#0 -32270595 -29900561#1 -29900561#0 -4006688#4 -4006688#3 -4006688#2 -4006688#1 -4006688#0 -31401017#0"/>
    </vehicle>
    <vehicle id="Hotspot 30-Out-42" type="Default" depart="71.00" departLane="best" departPos="random_free" departSpeed="max" color="194,125,241">
        <route edges="-4006702#2 -4006702#1 -4006702#0 4319352#1 44069041#0 25472134 30751813 4047446#0 4047446#1"/>
    </vehicle>
    <vehicle id="Hotspot 29-Out-17" type="Default" depart="72.00" departLane="best" departPos="random_free" departSpeed="max" color="105,221,60">
        <route edges="44069041#1 4400949 31982182#0 4047241 4797872 4797871 4006668 126606716 113939242#0 5445204#1 5445204#2"/>
    </vehicle>
    <vehicle id="Hotspot 30-Out-198" type="Default" depart="73.00" departLane="best" departPos="random_free" departSpeed="max" color="194,125,241">
        <route edges="31241853#2 31241851#2 -31255203#0 -4006702#0 4319352#1 44069041#0 44069041#1 4400949 31982182#0 4047241 4797872 4797871 4006668 126606716 113939242#0 113939244#2"/>
    </vehicle>
    <vehicle id="Hotspot 30-Out-154" type="Default" depart="75.00" departLane="best" departPos="random_free" departSpeed="max" color="194,125,241">
        <route edges="-31241848 31241848 31241851#0 31241851#1 31241851#2 -31255203#0 -4006702#0 -3013106#2 -3013106#1 -3013106#0 -3998612#2 -3998612#1 3998645#0"/>
    </vehicle>
    <vehicle id="Hotspot 30-Out-31" type="Default" depart="81.00" departLane="best" departPos="random_free" departSpeed="max" color="194,125,241">
        <route edges="-28613737 28613737 94344941 94344940#0 -94344940#0"/>
    </vehicle>
    <vehicle id="Hotspot 30-Out-207" type="Default" depart="83.00" departLane="best" departPos="random_free" departSpeed="max" color="194,125,241">
        <route edges="31241816#3 -31241816#3 31241851#0 31241851#1 31241851#2 -31255203#0 -4006702#0 4319352#1 44069041#0 44069041#1 25472079 30405352 30350445 -33174302#1 33174302#1"/>
    </vehicle>
    <vehicle id="Hotspot 30-Out-49" type="Default" depart="85.00" departLane="best" departPos="random_free" departSpeed="max" color="194,125,241">
        <route edges="31241816#1 31241851#0 31241851#1 31241851#2 -31255203#0 -4006702#0 4319352#1 44069041#0 44069041#1 25472079 30405352 30350445 -33174302#1 -33174302#0 -32270595 -29900561#1 -29900561#0 -8403001 -4006674#4 -4006674#3 -4006674#2 -4006674#1 4006674#1"/>
    </vehicle>
    <vehicle id="Hotspot 30-Out-160" type="Default" depart="88.00" departLane="best" departPos="random_free" departSpeed="max" color="194,125,241">
        <route edges="94344941 28768072 -28613737 -4006702#0 4319352#1 44069041#0 44069041#1 25472079 30405352 30350445 -33174302#1 -33174302#0 -32270595 -29900561#1 -29900561#0 -8403001 -4006674#4 -4006674#3 -4006674#2 -4006674#1 -4006674#0 32270593"/>
    </vehicle>
    <vehicle id="Hotspot 29-Out-128" type="Default" depart="89.00" departLane="best" departPos="random_free" departSpeed="max" color="105,221,60">
        <route edges="25472299 30350448 8364476 30350450#0 30350450#1 30350450#2 4006702#0 31255203#0 -31241851#2 -31241853#2 -31241853#1 31241853#1"/>
    </vehicle>
    <vehicle id="Hotspot 30-Out-278" type="Default" depart="89.00" departLane="best" departPos="random_free" departSpeed="max" color="194,125,241">
        <route edges="28768072 -28613737 -4006702#0 4319352#1 44069041#0 44069041#1 25472079 30405352 30350445 -33174302#1 -33174302#0 -32270595 -29900561#1 -29900561#0 -8403001 -4006674#4 -4006674#3 -4006674#2 -4006674#1 -4006674#0 32270593 32270592#0 32270592#1"/>
    </vehicle>
    <vehicle id="Hotspot 29-Out-78" type="Default" depart="90.00" departLane="best" departPos="random_free" departSpeed="max" color="105,221,60">
        <route edges="30350448 30350449 25472079 30405352 19796637 122161390 -30357194 3998613#0"/>
    </vehicle>
    <vehicle id="Hotspot 30-Out-274" type="Default" depart="90.00" departLane="best" departPos="random_free" departSpeed="max" color="194,125,241">
        <route edges="31241838#1 31241816#1 31241851#0 31241851#1 31241851#2 -31255203#0 -4006702#0 -3013106#2 -3013106#1 -3013106#0 -10573414#1 -10573414#0"/>
    </vehicle>
    <vehicle id="Hotspot 29-Out-2" type="Default" depart="91.00" departLane="best" departPos="random_free" departSpeed="max" color="105,221,60">
        <route edges="26188722 -26188722 35842306#1 4047446#0 4047446#1 25472079 30405352 30350445 -33174302#1 -33174302#0 -32270595 -29900561#1 -29900561#0 -4006688#4 -4006688#3 -4006688#2 -4006688#1 -4006688#0 31401017#1 31401017#2 -31401017#2"/>
    </vehicle>
    <vehicle id="Hotspot 29-Out-93" type="Default" depart="91.00" departLane="best" departPos="random_free" departSpeed="max" color="105,221,60">
        <route edges="25472257 25472299 30350448 8364476 30350450#0 30350450#1 30350450#2 4006702#0 4006702#1 4006702#2 -28269598 -4006703#1 4006705#1 4006705#2 31720632#0 31720632#1 -31720632#1"/>
    </vehicle>
    <vehicle id="Hotspot 30-Out-45" type="Default" depart="92.00" departLane="best" departPos="random_free" departSpeed="max" color="194,125,241">
        <route edges="-23350929 23350929 4900041#2 4900041#3 4900041#0 -4900043 -4006702#1 -4006702#0 4319352#1 44069041#0 44069041#1 4400949 31982182#0 4047241 4797872 4797871 4006668 126606716 113939242#0 5445204#1 5445204#2 39539626 -39539626"/>
    </vehicle>
    <vehicle id="Hotspot 29-Out-139" type="Default" depart="94.00" departLane="best" departPos="random_free" departSpeed="max" color="105,221,60">
        <route edges="19796637 122161381 30350448 30350449 25472079 30405352 30350445 -33174302#1 -33174302#0 -32270595 -29900561#1 -29900561#0 -8403001 -4006674#4 23605600#1 23605600#2"/>
    </vehicle>
    <vehicle id="Hotspot 30-Out-3" type="Default" depart="94.00" departLane="best" departPos="random_free" departSpeed="max" color="194,125,241">
        <route edges="-31241816#1 31241816#1 31241851#0 31241851#1 31241851#2 -31255203#0 -4006702#0 4319352#1 44069041#0 44069041#1 4400949 31982182#0 4047241 4797872 4797871 4006668 126606716 113939242#0 5445204#1 5445204#2 5445204#3 -5445204#3"/>
    </vehicle>
    <vehicle id="Hotspot 29-Out-37" type="Default" depart="95.00" departLane="best" departPos="random_free" departSpeed="max" color="105,221,60">
        <route edges="4047446#0 4047446#1 5931612 30350450#0 30350450#1 30350450#2 4006702#0 4006702#1 -4006702#1"/>
    </vehicle>
    <vehicle id="Hotspot 30-Out-125" type="Default" depart="95.00" departLane="best" departPos="random_free" departSpeed="max" color="194,125,241">
        <route edges="4900041#3 4900041#0 -4900043 -4006702#1 -4006702#0 -3013106#2 -3013106#1 -3013106#0 -10573414#1 4047378 4006724#1 4006724#2"/>
    </vehicle>
    <vehicle id="Hotspot 30-Out-228" type="Default" depart="95.00" departLane="best" departPos="random_free" departSpeed="max" color="194,125,241">
        <route edges="4006702#0 -4006702#0 4319352#1 44069041#0 44069041#1 25472079 30405352 30350445 -33174302#1 -33174302#0 -32302591#5 -32302591#4 -32302591#3 -32302591#2"/>
    </vehicle>
    <vehicle id="Hotspot 30-Out-282" type="Default" depart="97.00" departLane="best" departPos="random_free" departSpeed="max" color="194,125,241">
        <route edges="4319352#1 44069041#0 44069041#1 25472079 30405352 30350445 31353573#0 31353573#1 -3998613#2 -3998613#1"/>
    </vehicle>
    <vehicle id="Hotspot 30-Out-292" type="Default" depart="98.00" departLane="best" departPos="random_free" departSpeed="max" color="194,125,241">
        <route edges="-31241816#1 31241816#1 31241851#0 31241851#1 31241851#2 -31255203#0 -4006702#0 -3013106#2 3998615#0 3998615#1 3998615#2 -4099270#0"/>
    </vehicle>
    <vehicle id="Hotspot 30-Out-232" type="Default" depart="101.00" departLane="best" departPos="random_free" departSpeed="max" color="194,125,241">
        <route edges="4006702#1 -4006702#1 -4006702#0 4319352#1 44069041#0 44069041#1 4400949 31982182#0 4047241 4797872 4797871 4006668 23339459 30405358#1"/>
    </vehicle>
    <vehicle id="Hotspot 29-Out-106" type="Default" depart="102.00" departLane="best" departPos="random_free" departSpeed="max" color="105,221,60">
        <route edges="85355911#0 85355911#1 30405356 5931612 30350450#0 30350450#1 30350450#2 4006702#0 28613737 94344941 94344940#0 67076129"/>
    </vehicle>
    <vehicle id="Hotspot 29-Out-27" type="Default" depart="105.00" departLane="best" departPos="random_free" departSpeed="max" color="105,221,60">
        <route edges="30350445 -33174302#1 -33174302#0 -32270595 8402997 -8402998#0"/>
    </vehicle>
    <vehicle id="Hotspot 30-Out-127" type="Default" depart="105.00" departLane="best" departPos="random_free" departSpeed="max" color="194,125,241">
        <route edges="-4900043 -4006702#1 -4006702#0 4319352#1 44069041#0 44069041#1 25472079 30405352 30350445 -33174302#1 -33174302#0 -29900565#3 -29900565#2 -29900565#1 -29900565#0 -4006690 4006690"/>
    </vehicle>
    <vehicle id="Hotspot 30-Out-199" type="Default" depart="105.00" departLane="best" departPos="random_free" departSpeed="max" color="194,125,241">
        <route edges="-31241838#1 -31241838#0 -31255203#1 -31255203#0 -4006702#0 4319352#1 44069041#0 44069041#1 25472079 30405352 30350445 -33174302#1 -33174302#0 -29900565#3 8402998#0"/>
    </vehicle>
    <vehicle id="Hotspot 29-Out-118" type="Default" depart="110.00" departLane="best" departPos="random_free" departSpeed="max" color="105,221,60">
        <route edges="8364476 30350450#0 -3998645#2 -3998645#1 -4006726#2"/>
    </vehicle>
    <vehicle id="Hotspot 29-Out-92" type="Default" depart="110.00" departLane="best" departPos="random_free" departSpeed="max" color="105,221,60">
        <route edges="5931612 30350450#0 -3998645#2 -3998645#1 -3998645#0 -3998612#0 3998613#0 3998613#1 3998613#2"/>
    </vehicle>
    <vehicle id="Hotspot 29-Out-137" type="Default" depart="116.00" departLane="best" departPos="random_free" departSpeed="max" color="105,221,60">
        <route edges="4686970#0 4686970#1 122161381 30350448 30350449 25472079 30405352 30350445 -33174302#1 -33174302#0 -32270595 -29900561#1 -29900561#0 -8403001 -4006674#4 -4006674#3 -4006674#2 -4006674#1 -4006674#0 32270593"/>
    </vehicle>
    <vehicle id="Hotspot 29-Out-65" type="Default" depart="116.00" departLane="best" departPos="random_free" departSpeed="max" color="105,221,60">
        <route edges="44069041#0 44069041#1 5931612 30350450#0 30350450#1 30350450#2 4006702#0 4006702#1 4006702#2 -28269598 -4006703#1 4006703#1"/>
    </vehicle>
    <vehicle id="Hotspot 29-Out-132" type="Default" depart="122.00" departLane="best" departPos="random_free" departSpeed="max" color="105,221,60">
        <route edges="25472299 30350448 8364476 30350450#0 30350450#1 30350450#2 4006702#0 28613737 94344941 94344940#0 94344940#2 94344940#3"/>
    </vehicle>
    <vehicle id="Hotspot 29-Out-46" type="Default" depart="123.00" departLane="best" departPos="random_free" departSpeed="max" color="105,221,60">
        <route edges="30350449 5931612 30350450#0 30350450#1 30350450#2 4319353 4319349"/>
    </vehicle>
    <vehicle id="Hotspot 30-Out-18" type="Default" depart="123.00" departLane="best" departPos="random_free" departSpeed="max" color="194,125,241">
        <route edges="31255203#0 -31255203#0 -4006702#0 -3013106#2 -3013106#1 -3013106#0 -10573414#1 -10573414#0"/>
    </vehicle>
    <vehicle id="Hotspot 29-Out-40" type="Default" depart="124.00" departLane="best" departPos="random_free" departSpeed="max" color="105,221,60">
        <route edges="30350448 8364476 30350450#0 30350450#1 30350450#2 4006702#0 31255203#0 -31241851#2 -31241853#2 31241838#1"/>
    </vehicle>
    <vehicle id="Hotspot 30-Out-70" type="Default" depart="124.00" departLane="best" departPos="random_free" departSpeed="max" color="194,125,241">
        <route edges="-31241816#1 31241816#1 31241851#0 31241851#1 31241851#2 -31255203#0 -4006702#0 4319352#1 44069041#0 25472134"/>
    </vehicle>