<?xml version="1.0" encoding="UTF-8"?>

<!-- generated on Sun Feb 15 13:40:08 2015 by SUMO duarouter Version 0.22.0
<?xml version="1.0" encoding="UTF-8"?>

<configuration xmlns:xsi="http://www.w3.org/2001/XMLSchema-instance" xsi:noNamespaceSchemaLocation="http://sumo.dlr.de/xsd/duarouterConfiguration.xsd">

    <input>
        <net-file value="/home/hendrik/CEC/ITSCmap/trafficmodeler/gen6/erlangen.net.xml"/>
        <trip-files value="/home/hendrik/CEC/ITSCmap/trafficmodeler/gen6/sim.generated-trips.xml"/>
    </input>

    <output>
        <output-file value="/home/hendrik/CEC/ITSCmap/trafficmodeler/gen6/erlangen.rou.xml"/>
    </output>

    <processing>
        <ignore-errors value="true"/>
        <repair value="true"/>
    </processing>

    <defaults>
        <departlane value="best"/>
        <departpos value="random_free"/>
        <departspeed value="max"/>
    </defaults>

    <time>
        <begin value="0"/>
        <end value="540"/>
    </time>

    <random_number>
        <seed value="1000"/>
    </random_number>

</configuration>
-->

<routes xmlns:xsi="http://www.w3.org/2001/XMLSchema-instance" xsi:noNamespaceSchemaLocation="http://sumo.dlr.de/xsd/routes_file.xsd">
    <vType id="Default" length="5.00" maxSpeed="70.00">
        <carFollowing-Krauss accel="2.60" decel="4.50" sigma="0.50"/>
    </vType>
    <vehicle id="Hotspot 33-Out-13" type="Default" depart="1.00" departLane="best" departPos="random_free" departSpeed="max" color="229,43,36">
        <route edges="-4006726#0 -3998615#0 3013106#2 4319352#1 44069041#0 44069041#1 25472079 30405352 30350445 -33174302#1 -33174302#0 -32302591#5 -32302591#4 -32302591#3 -32302591#2 32302591#2"/>
    </vehicle>
    <vehicle id="Hotspot 33-Out-180" type="Default" depart="1.00" departLane="best" departPos="random_free" departSpeed="max" color="229,43,36">
        <route edges="3998643#1 3998643#2 30350450#2 4319352#1 44069041#0 44069041#1 25472079 30405352 30350445 -33174302#1 -33174302#0 -32270595 -29900561#1 -29900561#0 -8403001 -4006674#4 -4006674#3 -4006674#2 -4006674#1 -4006682"/>
    </vehicle>
    <vehicle id="Hotspot 34-Out-113" type="Default" depart="1.00" departLane="best" departPos="random_free" departSpeed="max" color="245,90,173">
        <route edges="-29900564#5 -29900564#4 -29900564#3 -29900564#2 -29900564#1 -8402998#2 -8402998#1 -8402997 32270595 33174302#0 33174302#1 4686970#0 25472257"/>
    </vehicle>
    <vehicle id="Hotspot 33-Out-313" type="Default" depart="4.00" departLane="best" departPos="random_free" departSpeed="max" color="229,43,36">
        <route edges="3998653 -3998653 -3998613#0 3998612#0 3998612#1 3998612#2 3013106#0 3013106#1 3013106#2 4006702#0 4006702#1 4900043 4900041#1 4900041#2 4900041#3 4900041#0 -4900043"/>
    </vehicle>
    <vehicle id="Hotspot 34-Out-145" type="Default" depart="4.00" departLane="best" departPos="random_free" departSpeed="max" color="245,90,173">
        <route edges="-29900565#3 29900565#3 33174302#0 33174302#1 4686970#0 4686970#1 122161381 30350448 8364476 30350450#0 30350450#1 30350450#2 4006702#0 4006702#1 4006702#2 -28269598 -4006703#1 4006705#1 4006705#2 -4006705#2"/>
    </vehicle>
    <vehicle id="Hotspot 33-Out-167" type="Default" depart="5.00" departLane="best" departPos="random_free" departSpeed="max" color="229,43,36">
        <route edges="-3998615#2 3998643#2 30350450#2 4319352#1 44069041#0 25472134 30751813 -35842306#1 -35842306#0 -4900741 -4900739#2 -4900739#1"/>
    </vehicle>
    <vehicle id="Hotspot 33-Out-4" type="Default" depart="6.00" departLane="best" departPos="random_free" departSpeed="max" color="229,43,36">
        <route edges="-3998645#0 -3998612#0 30357194 25472299 30350448 30350449 25472079 30405352 30350445 -33174302#1 -33174302#0 -32270595 8402997 8402998#1 8402998#2 29900564#1 29900564#2 29900564#3 -10425128#1"/>
    </vehicle>
    <vehicle id="Hotspot 34-Out-146" type="Default" depart="6.00" departLane="best" departPos="random_free" departSpeed="max" color="245,90,173">
        <route edges="4006689 29900565#2 29900565#3 33174302#0 33174302#1 4686970#0 25472257 -30357194 3998612#0"/>
    </vehicle>
    <vehicle id="Hotspot 33-Out-16" type="Default" depart="7.00" departLane="best" departPos="random_free" departSpeed="max" color="229,43,36">
        <route edges="-3998613#0 3998612#0 3998612#1 3998612#2 3013106#0 3013106#1 3013106#2 4006702#0 31255203#0 -31241851#2 -31241851#1"/>
    </vehicle>
    <vehicle id="Hotspot 33-Out-9" type="Default" depart="8.00" departLane="best" departPos="random_free" departSpeed="max" color="229,43,36">
        <route edges="-4099270#0 4006726#2 -3998645#0 -3998612#0 30357194 25472299 30350448 30350449 4047309 30751813 -35842306#1 26188722 -26188722"/>
    </vehicle>
    <vehicle id="Hotspot 34-Out-2" type="Default" depart="8.00" departLane="best" departPos="random_free" departSpeed="max" color="245,90,173">
        <route edges="-4006674#3 4006674#3 4006674#4 8403001 -4006688#4 -4006688#3 -4006688#2 -4006688#1 -4006688#0 31401017#1 31401017#2 25398494#0 113939242#2"/>
    </vehicle>
    <vehicle id="Hotspot 33-Out-118" type="Default" depart="9.00" departLane="best" departPos="random_free" departSpeed="max" color="229,43,36">
        <route edges="-30357194 3998613#0 3998613#1 3998613#2 -31353573#1 4006673 -32302591#4 -32302591#3 -32302591#2 -32302591#1 -32302591#0 4006672"/>
    </vehicle>
    <vehicle id="Hotspot 33-Out-191" type="Default" depart="10.00" departLane="best" departPos="random_free" departSpeed="max" color="229,43,36">
        <route edges="-3998612#0 30357194 25472299 30350448 30350449 25472079 30405352 30350445 -33174302#1 -33174302#0 -32270595 -29900561#1 -29900561#0 -4006688#4 -4006688#3 -4006688#2 -4006688#1 -4006688#0"/>
    </vehicle>
    <vehicle id="Hotspot 33-Out-240" type="Default" depart="10.00" departLane="best" departPos="random_free" departSpeed="max" color="229,43,36">
        <route edges="-30357194 30357194 25472299 30350448 30350449 25472079 30405352 30350445 -33174302#1 -33174302#0 -29900565#3 -29900565#2 -29900565#1"/>
    </vehicle>
    <vehicle id="Hotspot 33-Out-247" type="Default" depart="10.00" departLane="best" departPos="random_free" departSpeed="max" color="229,43,36">
        <route edges="-3998643#0 -3998612#1 -3998612#0 30357194 25472299 30350448 30350449 25472079 30405352 30350445 -33174302#1 -33174302#0 -32270595 8402997 8402998#1 8402998#2 -8402998#2"/>
    </vehicle>
    <vehicle id="Hotspot 33-Out-343" type="Default" depart="10.00" departLane="best" departPos="random_free" departSpeed="max" color="229,43,36">
        <route edges="-3013106#2 3013106#2 4319352#1 44069041#0 44069041#1 25472079 30405352 30350445 -33174302#1 -33174302#0 -32270595 -29900561#1 -29900561#0 -8403001 -4006674#4 -4006674#3 -4006674#2 -4006674#1 -4006674#0 32270593 32270592#0 -4006675"/>
    </vehicle>
    <vehicle id="Hotspot 34-Out-11" type="Default" depart="10.00" departLane="best" departPos="random_free" departSpeed="max" color="245,90,173">
        <route edges="32302591#4 32302591#5 33174302#0 33174302#1 4686970#0 25472257 -30357194 3998612#0 3998612#1 3998643#0"/>
    </vehicle>
    <vehicle id="Hotspot 34-Out-83" type="Default" depart="10.00" departLane="best" departPos="random_free" departSpeed="max" color="245,90,173">
        <route edges="-4047532 -32270592#1 -32270592#0 -32270593 4006674#0 4006674#1 4006674#2 4006674#3 4006674#4 8403001 29900561#0 29900561#1 32270595 33174302#0 33174302#1 4686970#0 4686970#1 122161381 30350448 8364476 30350450#0 30350450#1 30350450#2 4006702#0 4006702#1 4900043 4900041#1 -23350929 23350929"/>
    </vehicle>
    <vehicle id="Hotspot 33-Out-274" type="Default" depart="11.00" departLane="best" departPos="random_free" departSpeed="max" color="229,43,36">
        <route edges="-4006725#1 4006725#1 -3998612#0 30357194 25472299 30350448 30350449 25472079 30405352 30350445 -33174302#1 -33174302#0 -29900565#3 -29900565#2 -29900565#1 -29900565#0 -29900564#5"/>
    </vehicle>
    <vehicle id="Hotspot 33-Out-345" type="Default" depart="12.00" departLane="best" departPos="random_free" departSpeed="max" color="229,43,36">
        <route edges="-4006726#1 4006726#1 4006726#2 -3998645#0 -3998612#0 30357194 25472299 30350448 30350449 25472079 30405352 30350445 -33174302#1 -33174302#0 -32270595 8402997 8402998#1 8402998#2 29900564#1 29900564#2 29900564#3 29900564#4 -29900564#4"/>
    </vehicle>
    <vehicle id="Hotspot 33-Out-364" type="Default" depart="12.00" departLane="best" departPos="random_free" departSpeed="max" color="229,43,36">
        <route edges="-4006726#2 -4006726#1 -4006726#0 -3998615#0 3013106#2 4006702#0 4006702#1 4006702#2 -28269598 -4006703#1 -4006703#0"/>
    </vehicle>
    <vehicle id="Hotspot 33-Out-81" type="Default" depart="12.00" departLane="best" departPos="random_free" departSpeed="max" color="229,43,36">
        <route edges="3998612#1 3998612#2 3013106#0 3013106#1 3013106#2 4006702#0 31255203#0 -31241851#2 -31241853#2 -31241853#1 31241853#1"/>
    </vehicle>
    <vehicle id="Hotspot 34-Out-45" type="Default" depart="12.00" departLane="best" departPos="random_free" departSpeed="max" color="245,90,173">
        <route edges="29900561#0 29900561#1 32270595 33174302#0 33174302#1 4686970#0 4686970#1 122161381 30350448 8364476 30350450#0 30350450#1 30350450#2 4006702#0 28613737 94344941 94344940#0"/>
    </vehicle>
    <vehicle id="Hotspot 33-Out-390" type="Default" depart="13.00" departLane="best" departPos="random_free" departSpeed="max" color="229,43,36">
        <route edges="3998643#2 30350450#2 4319352#1 44069041#0 44069041#1 4400949 31982182#0 4047241 4797872 4797871 4006668 126606716 113939242#0 113939242#1 113939242#2 113939244#0"/>
    </vehicle>
    <vehicle id="Hotspot 33-Out-280" type="Default" depart="16.00" departLane="best" departPos="random_free" departSpeed="max" color="229,43,36">
        <route edges="-3013109 3013106#0 3013106#1 3013106#2 4319352#1 44069041#0 44069041#1 4400949 31982182#0 4047241 4797872 4797871 4006668 23339459 30405358#1"/>
    </vehicle>
    <vehicle id="Hotspot 34-Out-89" type="Default" depart="16.00" departLane="best" departPos="random_free" departSpeed="max" color="245,90,173">
        <route edges="4006687 32270595 33174302#0 33174302#1 4686970#0 4686970#1 122161381 30350448 8364476 30350450#0 30350450#1 30350450#2 -3013106#2 -3013106#1 -3013107"/>
    </vehicle>
    <vehicle id="Hotspot 33-Out-257" type="Default" depart="21.00" departLane="best" departPos="random_free" departSpeed="max" color="229,43,36">
        <route edges="-4006724#1 -4047378 10573414#1 3013106#0 3013106#1 3013106#2 4006702#0 31255203#0 -31241851#2 -31241851#1 -31241851#0 -31241848 31241848"/>
    </vehicle>
    <vehicle id="Hotspot 34-Out-129" type="Default" depart="21.00" departLane="best" departPos="random_free" departSpeed="max" color="245,90,173">
        <route edges="-29900565#0 -4006690 -4006693#4 -4006693#3 -4006693#2 -4006693#1 -4006693#0 25398494#0 113939244#1 113939244#2 -126606716 -4006668 4006668"/>
    </vehicle>
    <vehicle id="Hotspot 34-Out-120" type="Default" depart="22.00" departLane="best" departPos="random_free" departSpeed="max" color="245,90,173">
        <route edges="-10425131 4006688#4 29900561#0 29900561#1 32270595 33174302#0 33174302#1 4686970#0 4686970#1 122161381 30350448 30350449 25472079 30405352"/>
    </vehicle>
    <vehicle id="Hotspot 34-Out-19" type="Default" depart="22.00" departLane="best" departPos="random_free" departSpeed="max" color="245,90,173">
        <route edges="23605600#0 4006674#4 8403001 29900561#0 29900561#1 32270595 33174302#0 33174302#1 4686970#0 4686970#1 122161381 30350448 30350449"/>
    </vehicle>
    <vehicle id="Hotspot 34-Out-41" type="Default" depart="22.00" departLane="best" departPos="random_free" departSpeed="max" color="245,90,173">
        <route edges="10425128#0 10425128#1 -29900564#3 -29900564#2 -29900564#1 -8402998#2 -8402998#1 -8402997 32270595 33174302#0 33174302#1 4686970#0 4686970#1 122161381 30350448 8364476 30350450#0 30350450#1 30350450#2 4006702#0 31255203#0 31255203#1"/>
    </vehicle>
    <vehicle id="Hotspot 34-Out-82" type="Default" depart="22.00" departLane="best" departPos="random_free" departSpeed="max" color="245,90,173">
        <route edges="29900565#2 29900565#3 33174302#0 33174302#1 4686970#0 4686970#1 122161381 30350448 8364476 30350450#0"/>
    </vehicle>
    <vehicle id="Hotspot 33-Out-331" type="Default" depart="23.00" departLane="best" departPos="random_free" departSpeed="max" color="229,43,36">
        <route edges="3998643#1 3998643#2 30350450#2 4006702#0 31255203#0 -31241851#2 -31241853#2 31241853#2"/>
    </vehicle>
    <vehicle id="Hotspot 33-Out-352" type="Default" depart="24.00" departLane="best" departPos="random_free" departSpeed="max" color="229,43,36">
        <route edges="4319352#0 4319352#1 44069041#0 44069041#1 25472079 30405352 30350445 -33174302#1 -33174302#0 -32302591#5 -32302591#4 -32302591#3 -32302591#2"/>
    </vehicle>
    <vehicle id="Hotspot 33-Out-71" type="Default" depart="24.00" departLane="best" departPos="random_free" departSpeed="max" color="229,43,36">
        <route edges="10573414#0 4047378 4006724#1 4872369 4006725#1 -3998612#0 30357194 25472299 30350448 30350449 25472079 30405352 30350445 -33174302#1 -33174302#0 -32270595 -29900561#1 -29900561#0 -4006688#4 -4006688#3 -4006688#2 -4006688#1 -4006688#0 -31401017#0 -29900567 -31401018 31401018"/>
    </vehicle>
    <vehicle id="Hotspot 34-Out-180" type="Default" depart="24.00" departLane="best" departPos="random_free" departSpeed="max" color="245,90,173">
        <route edges="4006675 -32270592#0 -32270593 4006674#0 4006674#1 4006674#2 4006674#3 4006674#4 8403001 29900561#0 29900561#1 32270595 33174302#0 33174302#1 4686970#0 4686970#1 122161381 30350448 30350449 4047309 30751813 -35842306#1 -35842306#0 -4900741 4900741"/>
    </vehicle>
    <vehicle id="Hotspot 34-Out-75" type="Default" depart="25.00" departLane="best" departPos="random_free" departSpeed="max" color="245,90,173">
        <route edges="8402997 -8402997 32270595 33174302#0 33174302#1 4686970#0 4686970#1 122161381 30350448 30350449 4047309 30751813"/>
    </vehicle>
    <vehicle id="Hotspot 33-Out-225" type="Default" depart="26.00" departLane="best" departPos="random_free" departSpeed="max" color="229,43,36">
        <route edges="3013106#0 3013106#1 3013106#2 4319352#1 44069041#0 44069041#1 25472079 30405352 30350445 -33174302#1 -33174302#0 -32270595 -29900561#1 -29900561#0 -8403001 -4006674#4 -4006674#3 -4006674#2 -4006674#1 -4006674#0"/>
    </vehicle>
    <vehicle id="Hotspot 33-Out-69" type="Default" depart="28.00" departLane="best" departPos="random_free" departSpeed="max" color="229,43,36">
        <route edges="-4006726#2 -4006726#1 -4006726#0 -3998615#0 3013106#2 4006702#0 4006702#1 4006702#2 -23805514#1 -32611578"/>
    </vehicle>
    <vehicle id="Hotspot 33-Out-115" type="Default" depart="29.00" departLane="best" departPos="random_free" departSpeed="max" color="229,43,36">
        <route edges="3998645#2 -3998645#2 -3998645#1 -3998645#0 -3998612#0 3998613#0 3998613#1 3998613#2 -31353573#1 4006673 -32302591#4 -32302591#3 -32302591#2 -32302591#1 -32302591#0 4006672"/>
    </vehicle>
    <vehicle id="Hotspot 33-Out-165" type="Default" depart="29.00" departLane="best" departPos="random_free" departSpeed="max" color="229,43,36">
        <route edges="-4006724#2 4872369 4006725#1 -3998612#0 30357194 25472299 30350448 30350449 25472079 30405352 30350445 -33174302#1 -33174302#0 -32270595 -29900561#1 -29900561#0 -8403001 -4006674#4 -4006674#3 -4006674#2 -4006674#1 -4006674#0"/>
    </vehicle>
    <vehicle id="Hotspot 33-Out-107" type="Default" depart="30.00" departLane="best" departPos="random_free" departSpeed="max" color="229,43,36">
        <route edges="-3998615#3 -4099270#0 4006726#2 -3998645#0 -3998612#0 30357194 25472299 30350448 30350449 25472079 30405352 30350445 -33174302#1 -33174302#0 -32270595 -29900561#1 -29900561#0 -4006688#4 -4006688#3 -4006688#2 -4006688#1 -4006688#0 -31401017#0"/>
    </vehicle>
    <vehicle id="Hotspot 34-Out-177" type="Default" depart="30.00" departLane="best" departPos="random_free" departSpeed="max" color="245,90,173">
        <route edges="-5445204#3 -5445204#2 -5445204#1 113939244#2 -126606716 23339459 30405358#1 85355912 85355911#0 25472101 30405352 19796637 122161390 -30357194 3998613#0 3998653"/>
    </vehicle>
    <vehicle id="Hotspot 33-Out-214" type="Default" depart="31.00" departLane="best" departPos="random_free" departSpeed="max" color="229,43,36">
        <route edges="-3998613#1 3998613#1 3998613#2 -31353573#1 -31353573#0 -33174302#1 -33174302#0 -32270595 -29900561#1 -29900561#0 -4006688#4 -4006688#3 -4006688#2 -4006688#1 -4006688#0 -31401017#0 -29900567 -23605600#2"/>
    </vehicle>
    <vehicle id="Hotspot 33-Out-83" type="Default" depart="31.00" departLane="best" departPos="random_free" departSpeed="max" color="229,43,36">
        <route edges="-4006726#2 4006726#2 -3998645#0 -3998612#0 30357194 25472299 30350448 30350449 25472079 30405352 30350445 -33174302#1 -33174302#0 -29900565#3 -29900565#2 -29900565#1"/>
    </vehicle>
    <vehicle id="Hotspot 34-Out-70" type="Default" depart="32.00" departLane="best" departPos="random_free" departSpeed="max" color="245,90,173">
        <route edges="-4006688#1 -4006688#0 31401017#1 31401017#2 25398494#0 113939242#2 113939241 -37591481 -28269601 -4392769"/>
    </vehicle>
    <vehicle id="Hotspot 33-Out-279" type="Default" depart="33.00" departLane="best" departPos="random_free" departSpeed="max" color="229,43,36">
        <route edges="3013106#0 3013106#1 3013106#2 4006702#0 31255203#0 -31241851#2 -31241851#1 -31241851#0 31241816#3 -31241816#3"/>
    </vehicle>
    <vehicle id="Hotspot 33-Out-372" type="Default" depart="33.00" departLane="best" departPos="random_free" departSpeed="max" color="229,43,36">
        <route edges="3998645#0 -3998645#0 -3998612#0 30357194 25472299 30350448 30350449 4047309 30751813 -35842306#1 -35842306#0 -4900741 -4900739#2"/>
    </vehicle>
    <vehicle id="Hotspot 34-Out-10" type="Default" depart="33.00" departLane="best" departPos="random_free" departSpeed="max" color="245,90,173">
        <route edges="-29900565#3 29900565#3 33174302#0 33174302#1 4686970#0 4686970#1 122161381 30350448 30350449 4400949 31982182#0 31982182#1"/>
    </vehicle>
    <vehicle id="Hotspot 34-Out-32" type="Default" depart="36.00" departLane="best" departPos="random_free" departSpeed="max" color="245,90,173">
        <route edges="23605595 -23605595 -8403007 -29900564#1 -8402998#2 -8402998#1 -8402997 32270595 33174302#0 33174302#1 4686970#0 4686970#1 122161381 30350448 8364476 30350450#0 30350450#1 30350450#2 4006702#0 28613737 94344941 94344940#0 -28613727#1 -28613727#0 28613727#0"/>
    </vehicle>
    <vehicle id="Hotspot 33-Out-136" type="Default" depart="38.00" departLane="best" departPos="random_free" departSpeed="max" color="229,43,36">
        <route edges="-4006726#1 4006726#1 4006726#2 -3998645#0 -3998612#0 30357194 25472299 30350448 30350449 25472079 30405352 30350445 -33174302#1 -33174302#0 -32270595 -29900561#1 -29900561#0 -4006688#4 -4006688#3 -4006688#2 -4006688#1 -4006688#0 -31401017#0 -29900567 29900567"/>
    </vehicle>
    <vehicle id="Hotspot 33-Out-221" type="Default" depart="39.00" departLane="best" departPos="random_free" departSpeed="max" color="229,43,36">
        <route edges="-3998612#2 -3998612#1 -3998612#0 30357194 25472299 30350448 30350449 25472079 30405352 19796637 122161390"/>
    </vehicle>
    <vehicle id="Hotspot 34-Out-164" type="Default" depart="39.00" departLane="best" departPos="random_free" departSpeed="max" color="245,90,173">
        <route edges="-8402998#3 -8402998#2 -8402998#1 -8402997 32270595 -32302591#5 -32302591#4 -32302591#3 -32302591#2 4006683"/>
    </vehicle>
    <vehicle id="Hotspot 33-Out-234" type="Default" depart="40.00" departLane="best" departPos="random_free" departSpeed="max" color="229,43,36">
        <route edges="-3013106#1 3013106#1 3013106#2 4006702#0 31255203#0 -31241851#2 -31241851#1 -31241851#0 -31241816#1 -31241816#0 31241855#1"/>
    </vehicle>
    <vehicle id="Hotspot 34-Out-6" type="Default" depart="41.00" departLane="best" departPos="random_free" departSpeed="max" color="245,90,173">
        <route edges="29900567 -29900567 -31401018 -4047532 -32270592#1 -32270592#0"/>
    </vehicle>
    <vehicle id="Hotspot 33-Out-296" type="Default" depart="42.00" departLane="best" departPos="random_free" departSpeed="max" color="229,43,36">
        <route edges="-4047378 4047378 4006724#1 4872369 4006725#1 -3998612#0 30357194 25472299 30350448 30350449 4400949 31982182#0 4047241 4797872 4797871 4006668 126606716 113939242#0 5445204#1 5445204#2"/>
    </vehicle>
    <vehicle id="Hotspot 33-Out-162" type="Default" depart="43.00" departLane="best" departPos="random_free" departSpeed="max" color="229,43,36">
        <route edges="4006724#2 -3998612#1 -3998612#0 30357194 25472299 30350448 30350449 4400949 31982182#0 4047241 4797872 4797871 4006668 126606716 113939242#0 5445204#1 5445204#2 5445204#3 -23570844#1 23570844#1"/>
    </vehicle>
    <vehicle id="Hotspot 33-Out-377" type="Default" depart="43.00" departLane="best" departPos="random_free" departSpeed="max" color="229,43,36">
        <route edges="-4872369 4872369 4006725#1 -3998612#0 30357194 25472299 30350448 30350449 25472079 30405352 30350445 -33174302#1 -33174302#0 -32270595 8402997 8402998#1 8402998#2 29900564#1 8403007 23605595 4006693#1"/>
    </vehicle>
    <vehicle id="Hotspot 33-Out-241" type="Default" depart="44.00" departLane="best" departPos="random_free" departSpeed="max" color="229,43,36">
        <route edges="4006725#1 -3998612#0 30357194 25472299 30350448 30350449 25472079 30405352 30350445 -33174302#1 -33174302#0 -32270595 -29900561#1 -29900561#0 -8403001 -4006674#4 -4006674#3 4006684"/>
    </vehicle>
    <vehicle id="Hotspot 34-Out-22" type="Default" depart="44.00" departLane="best" departPos="random_free" departSpeed="max" color="245,90,173">
        <route edges="-4006674#4 4006674#4 8403001 29900561#0 29900561#1 32270595 33174302#0 33174302#1 4686970#0 4686970#1 122161381 30350448 30350449 4047309 30751813 -35842306#1"/>
    </vehicle>
    <vehicle id="Hotspot 34-Out-59" type="Default" depart="44.00" departLane="best" departPos="random_free" departSpeed="max" color="245,90,173">
        <route edges="32302591#5 33174302#0 33174302#1 4686970#0 4686970#1 122161381 30350448 8364476 30350450#0 30350450#1 30350450#2 4319353"/>
    </vehicle>
    <vehicle id="Hotspot 33-Out-189" type="Default" depart="45.00" departLane="best" departPos="random_free" departSpeed="max" color="229,43,36">
        <route edges="-10573414#1 10573414#1 3013106#0 3013106#1 3013106#2 4319352#1"/>
    </vehicle>
    <vehicle id="Hotspot 34-Out-27" type="Default" depart="45.00" departLane="best" departPos="random_free" departSpeed="max" color="245,90,173">
        <route edges="-29900564#1 -29900564#0 -8403001 -4006674#4 -4006674#3 -4006674#2 -4006674#1 -4006674#0 32270593 32270592#0 32270592#1 -32270592#1"/>
    </vehicle>
    <vehicle id="Hotspot 33-Out-233" type="Default" depart="47.00" departLane="best" departPos="random_free" departSpeed="max" color="229,43,36">
        <route edges="-3998612#1 -3998612#0 30357194 25472299 30350448 30350449 25472079 30405352 30350445 -33174302#1"/>
    </vehicle>
    <vehicle id="Hotspot 34-Out-57" type="Default" depart="47.00" departLane="best" departPos="random_free" departSpeed="max" color="245,90,173">
        <route edges="4900739#0 4900739#1 4900739#2 4900741 35842306#0 35842306#1 4047446#0 4047446#1 25472079 30405352 30350445 31353573#0 31353573#1 -3998613#2 4006740"/>
    </vehicle>
    <vehicle id="Hotspot 33-Out-135" type="Default" depart="50.00" departLane="best" departPos="random_free" departSpeed="max" color="229,43,36">
        <route edges="-3998612#0 3998613#0 3998613#1 3998613#2 -31353573#1 4006673 -32302591#4 -32302591#3 -32302591#2 -32302591#1 -32302591#0 4006672 32270593 32270592#0 -4006675"/>
    </vehicle>
    <vehicle id="Hotspot 33-Out-97" type="Default" depart="50.00" departLane="best" departPos="random_free" departSpeed="max" color="229,43,36">
        <route edges="3998612#1 -3998612#1 -3998612#0 3998613#0 3998613#1 3998613#2 -31353573#1 4006673 -32302591#4 -32302591#3 -32302591#2 -32302591#1 -32302591#0 -125685391"/>
    </vehicle>
    <vehicle id="Hotspot 34-Out-8" type="Default" depart="52.00" departLane="best" departPos="random_free" departSpeed="max" color="245,90,173">
        <route edges="8402998#0 -8402997 32270595 33174302#0 33174302#1 4686970#0 4686970#1 122161381 30350448 8364476 30350450#0 -3998645#2 -3998615#3 4099270#1 -4099270#1"/>
    </vehicle>
    <vehicle id="Hotspot 33-Out-187" type="Default" depart="53.00" departLane="best" departPos="random_free" departSpeed="max" color="229,43,36">
        <route edges="-4006726#2 4006726#2 -3998645#0 -3998612#0 30357194 25472299 30350448 30350449 4047309 30751813 -35842306#1 -35842306#0 -31777493#1 -31777493#0 -4047316"/>
    </vehicle>
    <vehicle id="Hotspot 33-Out-338" type="Default" depart="53.00" departLane="best" departPos="random_free" departSpeed="max" color="229,43,36">
        <route edges="30357194 25472299 30350448 8364476 30350450#0 30350450#1 30350450#2 4006702#0 4006702#1 4006702#2 -4006702#2"/>
    </vehicle>
    <vehicle id="Hotspot 34-Out-184" type="Default" depart="53.00" departLane="best" departPos="random_free" departSpeed="max" color="245,90,173">
        <route edges="29900564#5 29900565#0 29900565#1 29900565#2 29900565#3 33174302#0 33174302#1 4686970#0 4686970#1 122161381 30350448 8364476 30350450#0 30350450#1 30350450#2 4006702#0 31255203#0"/>
    </vehicle>
    <vehicle id="Hotspot 33-Out-30" type="Default" depart="57.00" departLane="best" departPos="random_free" departSpeed="max" color="229,43,36">
        <route edges="3998615#3 -3998615#3 -3998615#2 3998643#2 30350450#2 4006702#0 31255203#0 -31241851#2 -31241851#1 -31241851#0 31241816#3 31241835#1 31241834#0"/>
    </vehicle>
    <vehicle id="Hotspot 34-Out-132" type="Default" depart="58.00" departLane="best" departPos="random_free" departSpeed="max" color="245,90,173">
        <route edges="31401017#2 -31401017#2 -31401017#1 4006688#0 4006688#1 4006688#2 4006688#3 4006688#4 29900561#0 29900561#1 32270595 33174302#0 33174302#1 4686970#0 25472257 -30357194 3998612#0 -4006725#1 -4872369 4006724#2"/>
    </vehicle>
    <vehicle id="Hotspot 34-Out-13" type="Default" depart="59.00" departLane="best" departPos="random_free" departSpeed="max" color="245,90,173">
        <route edges="4099309 4900739#1 4900739#2 4900741 35842306#0 35842306#1 4047446#0 4047446#1 5931612"/>
    </vehicle>
    <vehicle id="Hotspot 34-Out-173" type="Default" depart="59.00" departLane="best" departPos="random_free" departSpeed="max" color="245,90,173">
        <route edges="-10425128#0 10425128#0 10425128#1 -29900564#3 -29900564#2 -29900564#1 -8402998#2 -8402998#1 -8402997 32270595 33174302#0 33174302#1 4686970#0 4686970#1 122161381 30350448 30350449 4047309 30751813 -35842306#1"/>
    </vehicle>
    <vehicle id="Hotspot 33-Out-301" type="Default" depart="60.00" departLane="best" departPos="random_free" departSpeed="max" color="229,43,36">
        <route edges="3013106#1 3013106#2 4319352#1 44069041#0 44069041#1 25472079 30405352 30350445 -33174302#1 -33174302#0 -32270595 -29900561#1 -29900561#0 -4006688#4 -4006688#3 -4006688#2 -4006688#1 -4006688#0 31401017#1 -31401017#1"/>
    </vehicle>
    <vehicle id="Hotspot 33-Out-46" type="Default" depart="61.00" departLane="best" departPos="random_free" departSpeed="max" color="229,43,36">
        <route edges="-3998612#0 30357194 25472299 30350448 30350449 4400949 31982182#0 4047241 4797872 4797871 4006668 23339459"/>
    </vehicle>
    <vehicle id="Hotspot 34-Out-178" type="Default" depart="62.00" departLane="best" departPos="random_free" departSpeed="max" color="245,90,173">
        <route edges="-10712013 4006688#3 4006688#4 29900561#0 29900561#1 32270595 33174302#0 33174302#1 4686970#0 25472257 -30357194 3998612#0 3998612#1 -3998612#1"/>
    </vehicle>
    <vehicle id="Hotspot 33-Out-388" type="Default" depart="63.00" departLane="best" departPos="random_free" departSpeed="max" color="229,43,36">
        <route edges="-4006724#1 4006724#1 4872369 4006725#1 -3998612#0 30357194 25472299 30350448 30350449 4400949 31982182#0 4047241"/>
    </vehicle>
    <vehicle id="Hotspot 34-Out-186" type="Default" depart="63.00" departLane="best" departPos="random_free" departSpeed="max" color="245,90,173">
        <route edges="-10425130 4006688#2 4006688#3 4006688#4 29900561#0 29900561#1 32270595 33174302#0 33174302#1 4686970#0 4686970#1 122161381 30350448 8364476 30350450#0 30350450#1 30350450#2 4006702#0 28613737 94344941 94344940#0 -28613727#1"/>
    </vehicle>
    <vehicle id="Hotspot 33-Out-204" type="Default" depart="64.00" departLane="best" departPos="random_free" departSpeed="max" color="229,43,36">
        <route edges="-3013106#2 3013106#2 4319352#1 44069041#0 44069041#1 25472079 30405352 30350445 4686970#0"/>
    </vehicle>
    <vehicle id="Hotspot 33-Out-310" type="Default" depart="65.00" departLane="best" departPos="random_free" departSpeed="max" color="229,43,36">
        <route edges="3998643#1 3998643#2 30350450#2 4319352#1 44069041#0 44069041#1 25472079 30405352 30350445 -33174302#1 -33174302#0 -32302591#5 -32302591#4 -32302591#3 -4006684"/>
    </vehicle>
    <vehicle id="Hotspot 33-Out-19" type="Default" depart="66.00" departLane="best" departPos="random_free" departSpeed="max" color="229,43,36">
        <route edges="4047378 -4047378 10573414#1 3013106#0 3013106#1 3013106#2 4006702#0 4006702#1 4006702#2 -28269598 -4006703#1"/>
    </vehicle>
    <vehicle id="Hotspot 33-Out-309" type="Default" depart="66.00" departLane="best" departPos="random_free" departSpeed="max" color="229,43,36">