<?xml version="1.0" encoding="UTF-8"?>

<!-- generated on Sun Feb 15 13:39:30 2015 by SUMO duarouter Version 0.22.0
<?xml version="1.0" encoding="UTF-8"?>

<configuration xmlns:xsi="http://www.w3.org/2001/XMLSchema-instance" xsi:noNamespaceSchemaLocation="http://sumo.dlr.de/xsd/duarouterConfiguration.xsd">

    <input>
        <net-file value="/home/hendrik/CEC/ITSCmap/trafficmodeler/gen2/erlangen.net.xml"/>
        <trip-files value="/home/hendrik/CEC/ITSCmap/trafficmodeler/gen2/sim.generated-trips.xml"/>
    </input>

    <output>
        <output-file value="/home/hendrik/CEC/ITSCmap/trafficmodeler/gen2/erlangen.rou.xml"/>
    </output>

    <processing>
        <ignore-errors value="true"/>
        <repair value="true"/>
    </processing>

    <defaults>
        <departlane value="best"/>
        <departpos value="random_free"/>
        <departspeed value="max"/>
    </defaults>

    <time>
        <begin value="0"/>
        <end value="540"/>
    </time>

    <random_number>
        <seed value="1000"/>
    </random_number>

</configuration>
-->

<routes xmlns:xsi="http://www.w3.org/2001/XMLSchema-instance" xsi:noNamespaceSchemaLocation="http://sumo.dlr.de/xsd/routes_file.xsd">
    <vType id="Default" length="5.00" maxSpeed="70.00">
        <carFollowing-Krauss accel="2.60" decel="4.50" sigma="0.50"/>
    </vType>
    <vehicle id="Area Flow 26-29" type="Default" depart="0.00" departLane="best" departPos="random_free" departSpeed="max" color="250,144,18">
        <route edges="-15259223 15259223 4006668 23339459 30405358#1 85355912 85355911#0 25472101 30405352 19796637 122161390 -30357194 -32282774"/>
    </vehicle>
    <vehicle id="Area Flow 28-11" type="Default" depart="0.00" departLane="best" departPos="random_free" departSpeed="max" color="47,131,118">
        <route edges="-4872369 -4006724#1 -4047378 10573414#1 3013106#0 3013106#1 3013106#2 4006702#0 28613737 94344941 94344940#0 94344940#2 94344940#3 -94344940#3"/>
    </vehicle>
    <vehicle id="Area Flow 28-120" type="Default" depart="0.00" departLane="best" departPos="random_free" departSpeed="max" color="47,131,118">
        <route edges="3998612#2 3013106#0 3013106#1 3013106#2 4006702#0 4006702#1 4006702#2 -4006702#2"/>
    </vehicle>
    <vehicle id="Area Flow 28-59" type="Default" depart="0.00" departLane="best" departPos="random_free" departSpeed="max" color="47,131,118">
        <route edges="-3013106#2 3013106#2 4006702#0 4006702#1 4900043 4900041#1 -23350929"/>
    </vehicle>
    <vehicle id="Area Flow 28-115" type="Default" depart="1.00" departLane="best" departPos="random_free" departSpeed="max" color="47,131,118">
        <route edges="3998653 -3998653 -3998613#0 30357194 25472299 30350448 30350449 4047309 30751813 -35842306#1 -35842306#0 -31777493#1 31777493#1"/>
    </vehicle>
    <vehicle id="Area Flow 28-150" type="Default" depart="1.00" departLane="best" departPos="random_free" departSpeed="max" color="47,131,118">
        <route edges="-10573414#1 4047378 4006724#1 4872369 4006725#1 -3998612#0 30357194 25472299 30350448 30350449 25472079 30405352 30350445 -33174302#1 -33174302#0 -29900565#3 -29900565#2 -29900565#1 -29900565#0 -4006690 -4006693#4 -4006693#3"/>
    </vehicle>
    <vehicle id="Area Flow 28-160" type="Default" depart="1.00" departLane="best" departPos="random_free" departSpeed="max" color="47,131,118">
        <route edges="4047378 4006724#1 4872369 4006725#1 -3998612#0 30357194 25472299 30350448 30350449 4047309 30751813 -35842306#1 -35842306#0 -4900741 4099309"/>
    </vehicle>
    <vehicle id="Area Flow 25-195" type="Default" depart="2.00" departLane="best" departPos="random_free" departSpeed="max" color="182,206,193">
        <route edges="31241816#0 31241816#1 31241851#0 31241851#1 31241851#2 -31255203#0 -4006702#0 4319352#1 44069041#0 44069041#1 25472079 30405352 30350445 -33174302#1 -33174302#0 -32270595 8402997"/>
    </vehicle>
    <vehicle id="Area Flow 26-265" type="Default" depart="2.00" departLane="best" departPos="random_free" departSpeed="max" color="250,144,18">
        <route edges="23339459 30405358#1 85355912 85355911#0 25472101 30405352 30350445 31353573#0 31353573#1 -41973977 -32271499 32271499"/>
    </vehicle>
    <vehicle id="Area Flow 28-124" type="Default" depart="2.00" departLane="best" departPos="random_free" departSpeed="max" color="47,131,118">
        <route edges="4872369 4006725#1 -3998612#0 30357194 25472299 30350448 30350449 4047309"/>
    </vehicle>
    <vehicle id="Area Flow 26-128" type="Default" depart="3.00" departLane="best" departPos="random_free" departSpeed="max" color="250,144,18">
        <route edges="30405358#0 30405358#1 85355912 85355911#0 25472101 30405352 19796637 122161390 -30357194 3998612#0 3998612#1 -4006724#2"/>
    </vehicle>
    <vehicle id="Area Flow 28-169" type="Default" depart="3.00" departLane="best" departPos="random_free" departSpeed="max" color="47,131,118">
        <route edges="-3998643#1 -4006726#0 -3998615#0 3013106#2 4319352#1 44069041#0"/>
    </vehicle>
    <vehicle id="Area Flow 25-146" type="Default" depart="4.00" departLane="best" departPos="random_free" departSpeed="max" color="182,206,193">
        <route edges="31241848 31241851#0 31241851#1 31241851#2 -31255203#0 -4006702#0 4319352#1 44069041#0 44069041#1 25472079 30405352 30350445 -33174302#1 -33174302#0 -29900565#3 -29900565#2 -29900565#1 -29900565#0 -4006690 --5558"/>
    </vehicle>
    <vehicle id="Area Flow 28-61" type="Default" depart="4.00" departLane="best" departPos="random_free" departSpeed="max" color="47,131,118">
        <route edges="3013106#1 3013106#2 4319352#1 44069041#0 25472134 30751813 -35842306#1 -35842306#0 -4900741 -4900739#2 -4900739#1 -4099309"/>
    </vehicle>
    <vehicle id="Area Flow 28-83" type="Default" depart="4.00" departLane="best" departPos="random_free" departSpeed="max" color="47,131,118">
        <route edges="-3998643#0 -3998612#1 -3998612#0 30357194 25472299 30350448 30350449 25472079 30405352 30350445 -33174302#1 -33174302#0 -32270595 8402997 8402998#1 8402998#2 29900564#1 8403007 23605595 4006693#1 -10419402 -23570844#2"/>
    </vehicle>
    <vehicle id="Area Flow 26-93" type="Default" depart="5.00" departLane="best" departPos="random_free" departSpeed="max" color="250,144,18">
        <route edges="-5445204#3 -5445204#2 -5445204#1 113939244#2 -126606716 23339459 30405358#1 85355912 85355911#0 85355911#1 30405356 5931612 30350450#0 -3998645#2 -3998615#3"/>
    </vehicle>
    <vehicle id="Area Flow 28-104" type="Default" depart="5.00" departLane="best" departPos="random_free" departSpeed="max" color="47,131,118">
        <route edges="3013109 3013107 3013106#1 3013106#2 4319352#1 44069041#0 44069041#1 5931612"/>
    </vehicle>
    <vehicle id="Area Flow 28-121" type="Default" depart="5.00" departLane="best" departPos="random_free" departSpeed="max" color="47,131,118">
        <route edges="4006724#2 -3998612#1 3998645#0 3998645#1 3998645#2 30350450#1"/>
    </vehicle>
    <vehicle id="Area Flow 28-177" type="Default" depart="5.00" departLane="best" departPos="random_free" departSpeed="max" color="47,131,118">
        <route edges="-4006724#1 4006724#1 4872369 4006725#1 -3998612#0 30357194 25472299 30350448 30350449 25472079 30405352 30350445 -33174302#1 -33174302#0 -32270595 8402997 8402998#1 8402998#2 29900564#1 29900564#2 -4006691"/>
    </vehicle>
    <vehicle id="Area Flow 25-235" type="Default" depart="6.00" departLane="best" departPos="random_free" departSpeed="max" color="182,206,193">
        <route edges="-31241834#0 -31241835#1 -31241816#3 31241851#0 31241851#1 31241851#2 -31255203#0 -4006702#0 4319352#1 44069041#0 44069041#1 25472079 30405352 30350445 -33174302#1 -33174302#0 -32302591#5 -32302591#4 -32302591#3 -32302591#2 -32302591#1 -32302591#0 -125685391 125685391"/>
    </vehicle>
    <vehicle id="Area Flow 28-103" type="Default" depart="6.00" departLane="best" departPos="random_free" departSpeed="max" color="47,131,118">
        <route edges="-4006726#0 -3998615#0 3013106#2 4319352#1 44069041#0 44069041#1 25472079 30405352 30350445 -33174302#1 -33174302#0 -29900565#3 -29900565#2 -29900565#1 4006691"/>
    </vehicle>
    <vehicle id="Area Flow 28-126" type="Default" depart="6.00" departLane="best" departPos="random_free" departSpeed="max" color="47,131,118">
        <route edges="3998615#0 -3998615#0 3013106#2 4006702#0 4006702#1 4900043 4900041#1 4900041#2 4900041#3"/>
    </vehicle>
    <vehicle id="Area Flow 28-142" type="Default" depart="6.00" departLane="best" departPos="random_free" departSpeed="max" color="47,131,118">
        <route edges="3998653 -3998653 -3998613#0 3998612#0 3998612#1 3998612#2 3013106#0 3013106#1 3013106#2 4006702#0 28613737 94344941 94344940#0 94344940#2 -54105725"/>
    </vehicle>
    <vehicle id="Area Flow 28-161" type="Default" depart="6.00" departLane="best" departPos="random_free" departSpeed="max" color="47,131,118">
        <route edges="4099270#0 -3998615#2 3998643#2 30350450#2 4006702#0 4006702#1 4006702#2 -4006702#2"/>
    </vehicle>
    <vehicle id="Area Flow 28-179" type="Default" depart="7.00" departLane="best" departPos="random_free" departSpeed="max" color="47,131,118">
        <route edges="-3998643#1 -4006726#0 -3998615#0 3013106#2 4006702#0 4006702#1 4006702#2 -23805514#1"/>
    </vehicle>
    <vehicle id="Area Flow 28-18" type="Default" depart="7.00" departLane="best" departPos="random_free" departSpeed="max" color="47,131,118">
        <route edges="-3998612#2 -3998612#1 -3998612#0 30357194 25472299 30350448 30350449 25472079 30405352 30350445 -33174302#1 -33174302#0 -29900565#3 -29900565#2 -29900565#1 -29900565#0 29900565#0"/>
    </vehicle>
    <vehicle id="Area Flow 28-3" type="Default" depart="7.00" departLane="best" departPos="random_free" departSpeed="max" color="47,131,118">
        <route edges="-4006724#1 -4047378 10573414#1 3013106#0 3013106#1 3013106#2 4006702#0 4006702#1 4900043 4900041#1 4900041#2 4900041#3 4900041#0 -4900043"/>
    </vehicle>
    <vehicle id="Area Flow 28-37" type="Default" depart="7.00" departLane="best" departPos="random_free" departSpeed="max" color="47,131,118">
        <route edges="3998643#1 3998643#2 30350450#2 4319352#1 44069041#0 44069041#1 25472079 30405352"/>
    </vehicle>
    <vehicle id="Area Flow 25-184" type="Default" depart="8.00" departLane="best" departPos="random_free" departSpeed="max" color="182,206,193">
        <route edges="31241851#2 -31255203#0 -4006702#0 4319352#1 44069041#0 44069041#1 25472079 30405352 30350445 -33174302#1 -33174302#0 -29900565#3 -29900565#2 -29900565#1 -29900565#0"/>
    </vehicle>
    <vehicle id="Area Flow 26-269" type="Default" depart="8.00" departLane="best" departPos="random_free" departSpeed="max" color="250,144,18">
        <route edges="23360299 -5445204#1 113939244#2 -126606716 23339459 30405358#1 85355912 85355911#0 25472101 30405352 30350445 4686970#0 25472257"/>
    </vehicle>
    <vehicle id="Area Flow 28-28" type="Default" depart="8.00" departLane="best" departPos="random_free" departSpeed="max" color="47,131,118">
        <route edges="3998613#1 -3998613#1 -3998613#0 3998612#0 3998612#1 3998612#2 3013106#0 3013106#1 3013106#2 4006702#0 28613737 94344941 28768072"/>
    </vehicle>
    <vehicle id="Area Flow 28-149" type="Default" depart="9.00" departLane="best" departPos="random_free" departSpeed="max" color="47,131,118">
        <route edges="-30357194 3998612#0 3998612#1 3998612#2 3013106#0 3013106#1 3013106#2 4006702#0 28613737 94344941 94344940#0 94344940#2 94344940#3"/>
    </vehicle>
    <vehicle id="Area Flow 28-38" type="Default" depart="9.00" departLane="best" departPos="random_free" departSpeed="max" color="47,131,118">
        <route edges="-3998612#2 -3998612#1 -3998612#0 30357194 25472299 30350448 30350449 4047309"/>
    </vehicle>
    <vehicle id="Area Flow 26-132" type="Default" depart="10.00" departLane="best" departPos="random_free" departSpeed="max" color="250,144,18">
        <route edges="-23360299 23360299 -5445204#1 113939244#2 -126606716 23339459 30405358#1 85355912 85355911#0 25472101 30405352 19796637 122161390 -30357194 -32282774 32282774"/>
    </vehicle>
    <vehicle id="Area Flow 28-114" type="Default" depart="10.00" departLane="best" departPos="random_free" departSpeed="max" color="47,131,118">
        <route edges="3013107 3013106#1 3013106#2 4319352#1 44069041#0 25472134 30751813 -35842306#1 -35842306#0 -4900741 -4900739#2 4900739#2"/>
    </vehicle>
    <vehicle id="Area Flow 28-29" type="Default" depart="10.00" departLane="best" departPos="random_free" departSpeed="max" color="47,131,118">
        <route edges="-3998643#0 3998612#2 3013106#0 3013106#1 3013106#2 4006702#0 4006702#1 4900043 4900041#1 -23350929"/>
    </vehicle>
    <vehicle id="Area Flow 28-77" type="Default" depart="10.00" departLane="best" departPos="random_free" departSpeed="max" color="47,131,118">
        <route edges="-3013106#0 3013106#0 3013106#1 3013106#2 4319352#1 44069041#0 25472134 30751813 -35842306#1 -35842306#0"/>
    </vehicle>
    <vehicle id="Area Flow 25-145" type="Default" depart="11.00" departLane="best" departPos="random_free" departSpeed="max" color="182,206,193">
        <route edges="-31241838#0 -31255203#1 -31255203#0 -4006702#0 4319352#1 44069041#0 44069041#1 25472079 30405352 30350445 -33174302#1 -33174302#0 -32302591#5 -32302591#4 -32302591#3 -32302591#2 -32302591#1 4006682"/>
    </vehicle>
    <vehicle id="Area Flow 28-2" type="Default" depart="11.00" departLane="best" departPos="random_free" departSpeed="max" color="47,131,118">
        <route edges="3013109 3013107 3013106#1 3013106#2 4006702#0 31255203#0 -31241851#2 -31241851#1 -31241851#0 -31241848 31241848"/>
    </vehicle>
    <vehicle id="Area Flow 26-72" type="Default" depart="12.00" departLane="best" departPos="random_free" departSpeed="max" color="250,144,18">
        <route edges="5445204#3 -5445204#3 -5445204#2 -5445204#1 113939244#2 -126606716 23339459 30405358#1 85355912 85355911#0 85355911#1 30405356 5931612 30350450#0 30350450#1 30350450#2 4319352#1"/>
    </vehicle>
    <vehicle id="Area Flow 28-39" type="Default" depart="12.00" departLane="best" departPos="random_free" departSpeed="max" color="47,131,118">
        <route edges="3013107 3013106#1 3013106#2 4319352#1 44069041#0 44069041#1 25472079 30405352 30350445 -33174302#1 -33174302#0 -32270595 8402997 8402998#1 8402998#2 29900564#1 8403007 23605595 -23605595"/>
    </vehicle>
    <vehicle id="Area Flow 28-97" type="Default" depart="12.00" departLane="best" departPos="random_free" departSpeed="max" color="47,131,118">
        <route edges="-30357194 30357194 25472299 30350448 30350449 4047309 30751813 -35842306#1 -35842306#0 -31777493#1 -31777493#0 31777493#0"/>
    </vehicle>
    <vehicle id="Area Flow 26-76" type="Default" depart="13.00" departLane="best" departPos="random_free" departSpeed="max" color="250,144,18">
        <route edges="23570844#1 -5445204#3 -5445204#2 -5445204#1 113939244#2 -126606716 23339459 30405358#1 85355912 85355911#0 25472101 30405352 19796637 122161390 -30357194 3998612#0 -4006725#1 -4872369 -4006724#1 -4006724#0"/>
    </vehicle>
    <vehicle id="Area Flow 28-136" type="Default" depart="13.00" departLane="best" departPos="random_free" departSpeed="max" color="47,131,118">
        <route edges="-3998645#0 3998612#1 3998612#2 3013106#0 3013106#1 3013106#2 4006702#0 4006702#1 4006702#2 -28269598"/>
    </vehicle>
    <vehicle id="Area Flow 28-72" type="Default" depart="13.00" departLane="best" departPos="random_free" departSpeed="max" color="47,131,118">
        <route edges="4006725#0 -4872369 -4006724#1 -4047378 10573414#1 3013106#0 3013106#1 3013106#2 4006702#0 28613737 94344941 94344940#0 -28613727#1 28613727#1"/>
    </vehicle>
    <vehicle id="Area Flow 26-164" type="Default" depart="14.00" departLane="best" departPos="random_free" departSpeed="max" color="250,144,18">
        <route edges="15259223 4006668 23339459 30405358#1 85355912 85355911#0 85355911#1 30405356 5931612 30350450#0 30350450#1 30350450#2 4006702#0 31255203#0 -31241851#2 -31241853#2 -31241838#0"/>
    </vehicle>
    <vehicle id="Area Flow 28-140" type="Default" depart="14.00" departLane="best" departPos="random_free" departSpeed="max" color="47,131,118">
        <route edges="3998612#2 3013106#0 3013106#1 3013106#2 4006702#0 31255203#0 -31241851#2 -31241851#1 -31241851#0 31241816#3 31241835#1"/>
    </vehicle>
    <vehicle id="Area Flow 28-155" type="Default" depart="14.00" departLane="best" departPos="random_free" departSpeed="max" color="47,131,118">
        <route edges="-3998653 -3998613#0 30357194 25472299 30350448 30350449 4400949 31982182#0 31982182#1"/>
    </vehicle>
    <vehicle id="Area Flow 25-60" type="Default" depart="15.00" departLane="best" departPos="random_free" departSpeed="max" color="182,206,193">
        <route edges="31255203#0 -31255203#0 -4006702#0 4319352#1 44069041#0 44069041#1 25472079 30405352 30350445 -33174302#1 -33174302#0 -32270595 -29900561#1 -29900561#0 -8403001 -4006674#4"/>
    </vehicle>
    <vehicle id="Area Flow 25-89" type="Default" depart="15.00" departLane="best" departPos="random_free" departSpeed="max" color="182,206,193">
        <route edges="-3013106#2 3013106#2 4319352#1 44069041#0 44069041#1 25472079 30405352 30350445 -33174302#1 -33174302#0 -32270595 -29900561#1 -29900561#0 -8403001 -4006674#4 -4006674#3 -4006674#2 -4006674#1 -4006674#0 32270593 32270592#0 -4006675"/>
    </vehicle>
    <vehicle id="Area Flow 28-137" type="Default" depart="15.00" departLane="best" departPos="random_free" departSpeed="max" color="47,131,118">
        <route edges="-3998643#0 -3998612#1 -3998612#0 30357194 25472299 30350448 30350449 25472079 30405352 30350445 -33174302#1 -33174302#0 -29900565#3 -29900565#2"/>
    </vehicle>
    <vehicle id="Area Flow 26-290" type="Default" depart="16.00" departLane="best" departPos="random_free" departSpeed="max" color="250,144,18">
        <route edges="4047241 4797872 4797871 4006668 23339459 30405358#1 85355912 85355911#0 85355911#1 30405356 5931612 30350450#0 30350450#1 30350450#2 4006702#0 31255203#0 -31241851#2 -31241851#1 -31241851#0 -31241816#1 -31241838#1"/>
    </vehicle>
    <vehicle id="Area Flow 25-53" type="Default" depart="17.00" departLane="best" departPos="random_free" departSpeed="max" color="182,206,193">
        <route edges="23350930 4900041#3 4900041#0 -4900043 -4006702#1 -4006702#0 4319352#1 44069041#0 44069041#1 25472079 30405352 30350445 -33174302#1 -33174302#0 -32270595 8402997 -8402997"/>
    </vehicle>
    <vehicle id="Area Flow 26-162" type="Default" depart="17.00" departLane="best" departPos="random_free" departSpeed="max" color="250,144,18">
        <route edges="-15259223 15259223 4006668 23339459 30405358#1 85355912 85355911#0 85355911#1 30405356 5931612 30350450#0 -3998645#2 -3998615#3 -4099270#0"/>
    </vehicle>
    <vehicle id="Area Flow 28-122" type="Default" depart="17.00" departLane="best" departPos="random_free" departSpeed="max" color="47,131,118">
        <route edges="4319352#0 4319352#1 44069041#0 25472134 30751813 4047446#0 25472129"/>
    </vehicle>
    <vehicle id="Area Flow 28-119" type="Default" depart="18.00" departLane="best" departPos="random_free" departSpeed="max" color="47,131,118">
        <route edges="-3013106#1 3013106#1 3013106#2 4006702#0 28613737 94344941 94344940#0 94344940#2"/>
    </vehicle>
    <vehicle id="Area Flow 28-143" type="Default" depart="18.00" departLane="best" departPos="random_free" departSpeed="max" color="47,131,118">
        <route edges="4047378 -4047378 10573414#1 3013106#0 3013106#1 3013106#2 4006702#0 28613737 94344941"/>
    </vehicle>
    <vehicle id="Area Flow 28-162" type="Default" depart="18.00" departLane="best" departPos="random_free" departSpeed="max" color="47,131,118">
        <route edges="-3013107 3013107 3013106#1 3013106#2 4006702#0 28613737 94344941 94344940#0 -28613727#1 -28613727#0 28613727#0"/>
    </vehicle>
    <vehicle id="Area Flow 28-188" type="Default" depart="18.00" departLane="best" departPos="random_free" departSpeed="max" color="47,131,118">
        <route edges="4006724#1 -4006724#1 -4047378 10573414#1 3013106#0 3013106#1 3013106#2 4006702#0 4006702#1 4900043 4900041#1 4900041#2 4900041#3"/>
    </vehicle>
    <vehicle id="Area Flow 25-66" type="Default" depart="19.00" departLane="best" departPos="random_free" departSpeed="max" color="182,206,193">
        <route edges="28613737 -28613737 -4006702#0 4319352#1 44069041#0 44069041#1 4400949 31982182#0 4047241 4797872 4797871 4006668 126606716 113939242#0 113939242#1 113939242#2 113939241 -37591481 -28269601"/>
    </vehicle>
    <vehicle id="Area Flow 26-216" type="Default" depart="19.00" departLane="best" departPos="random_free" departSpeed="max" color="250,144,18">
        <route edges="-4006668 4006668 23339459 30405358#1 85355912 85355911#0 25472101 30405352 19796637 122161390 -30357194 3998612#0 -4006725#1 -4872369 -4006724#1 -4006724#0 4006724#0"/>
    </vehicle>
    <vehicle id="Area Flow 28-13" type="Default" depart="19.00" departLane="best" departPos="random_free" departSpeed="max" color="47,131,118">
        <route edges="-4047378 10573414#1 3013106#0 3013106#1 3013106#2 4006702#0 31255203#0"/>
    </vehicle>
    <vehicle id="Area Flow 28-107" type="Default" depart="20.00" departLane="best" departPos="random_free" departSpeed="max" color="47,131,118">
        <route edges="-3013106#2 3013106#2 4319352#1 44069041#0 44069041#1 25472079 30405352 30350445 -33174302#1 -33174302#0 -32270595 8402997 8402998#1 8402998#2 29900564#1 8403007"/>
    </vehicle>
    <vehicle id="Area Flow 26-245" type="Default" depart="21.00" departLane="best" departPos="random_free" departSpeed="max" color="250,144,18">
        <route edges="5445204#3 -5445204#3 -5445204#2 -5445204#1 113939244#2 -126606716 23339459 30405358#1 85355912 85355911#0 25472101 30405352 19796637 122161390 -30357194 3998612#0 -4006725#1 -4872369 -4006724#1 4006724#1"/>
    </vehicle>
    <vehicle id="Area Flow 26-257" type="Default" depart="21.00" departLane="best" departPos="random_free" departSpeed="max" color="250,144,18">
        <route edges="-23570844#1 23570844#1 23570844#2 10419402 -4006693#1 -23605595 -8403007 -29900564#1 -8402998#2 -8402998#1 -8402997 32270595 33174302#0 33174302#1 31353573#0 31353573#1 -3998613#2 4006740"/>
    </vehicle>
    <vehicle id="Area Flow 28-128" type="Default" depart="21.00" departLane="best" departPos="random_free" departSpeed="max" color="47,131,118">
        <route edges="3013106#1 3013106#2 4319352#1 44069041#0 44069041#1 25472079 30405352 30350445 -33174302#1 -33174302#0 -32270595 8402997 8402998#1 8402998#2 29900564#1 29900564#2 29900564#3 -10425128#1 -10425128#0 4006693#3"/>
    </vehicle>
    <vehicle id="Area Flow 28-14" type="Default" depart="21.00" departLane="best" departPos="random_free" departSpeed="max" color="47,131,118">
        <route edges="-4006724#1 4006724#1 4872369 4006725#1 -3998612#0 30357194 25472299 30350448 30350449 4400949 31982182#0 31982182#1"/>
    </vehicle>
    <vehicle id="Area Flow 26-9" type="Default" depart="22.00" departLane="best" departPos="random_free" departSpeed="max" color="250,144,18">
        <route edges="4797871 4006668 23339459 30405358#1 85355912 85355911#0 85355911#1 30405356 5931612 30350450#0 30350450#1 30350450#2 -3013106#2 3013106#2"/>
    </vehicle>
    <vehicle id="Area Flow 28-181" type="Default" depart="22.00" departLane="best" departPos="random_free" departSpeed="max" color="47,131,118">
        <route edges="-4099270#0 -4006726#1 -4006726#0 -3998615#0 3013106#2 4006702#0 31255203#0 -31241851#2 -31241851#1 -31241851#0 -31241848 31241834#1"/>
    </vehicle>
    <vehicle id="Area Flow 28-57" type="Default" depart="22.00" departLane="best" departPos="random_free" departSpeed="max" color="47,131,118">
        <route edges="4006726#1 -4006726#1 -4006726#0 -3998615#0 3013106#2 4006702#0 4006702#1 4900043 4900041#1 4900041#2 4900041#3 4900041#0"/>
    </vehicle>
    <vehicle id="Area Flow 28-71" type="Default" depart="22.00" departLane="best" departPos="random_free" departSpeed="max" color="47,131,118">
        <route edges="-3998645#0 3998612#1 3998612#2 3013106#0 3013106#1 3013106#2 4006702#0 31255203#0 -31241851#2 -31241851#1 -31241851#0 31241816#3 31241835#1"/>
    </vehicle>
    <vehicle id="Area Flow 28-9" type="Default" depart="22.00" departLane="best" departPos="random_free" departSpeed="max" color="47,131,118">
        <route edges="-4872369 4872369 4006725#1 -3998612#0 30357194 25472299 30350448 30350449 4047309 30751813 -35842306#1 -35842306#0 -31777493#1 -31777493#0 -4047316"/>
    </vehicle>
    <vehicle id="Area Flow 26-69" type="Default" depart="23.00" departLane="best" departPos="random_free" departSpeed="max" color="250,144,18">
        <route edges="23339459 30405358#1 85355912 85355911#0 25472101 30405352 19796637 122161390 -30357194 -32282774"/>
    </vehicle>
    <vehicle id="Area Flow 28-84" type="Default" depart="23.00" departLane="best" departPos="random_free" departSpeed="max" color="47,131,118">
        <route edges="-3998643#0 3998612#2 3013106#0 3013106#1 3013106#2 4006702#0 4006702#1 4900043 4900041#1 4900041#2 4900041#3 4900041#0 -4900043"/>
    </vehicle>
    <vehicle id="Area Flow 26-130" type="Default" depart="25.00" departLane="best" departPos="random_free" departSpeed="max" color="250,144,18">
        <route edges="23360299 -5445204#1 113939244#2 -126606716 23339459 30405358#1 85355912 85355911#0 25472101 30405352 19796637 122161390 -30357194 3998612#0 3998645#0"/>
    </vehicle>
    <vehicle id="Area Flow 28-185" type="Default" depart="25.00" departLane="best" departPos="random_free" departSpeed="max" color="47,131,118">
        <route edges="-3998612#0 30357194 25472299 30350448 30350449 25472079 30405352 30350445 -33174302#1 -33174302#0 -32270595 8402997 8402998#1 8402998#2 29900564#1 29900564#2"/>
    </vehicle>
    <vehicle id="Area Flow 28-66" type="Default" depart="25.00" departLane="best" departPos="random_free" departSpeed="max" color="47,131,118">
        <route edges="3013109 3013107 3013106#1 3013106#2 4006702#0 31255203#0 -31241851#2 -31241851#1 -31241851#0 -31241848 31241848"/>
    </vehicle>
    <vehicle id="Area Flow 28-15" type="Default" depart="26.00" departLane="best" departPos="random_free" departSpeed="max" color="47,131,118">
        <route edges="-4006726#2 4006726#2 -3998645#0 -3998612#0 30357194 25472299 30350448 30350449 25472079 30405352 30350445 -33174302#1 -33174302#0 -32270595 8402997 8402998#1 8402998#2 29900564#1 29900564#2 29900564#3 29900564#4 29900564#5"/>
    </vehicle>
    <vehicle id="Area Flow 28-157" type="Default" depart="26.00" departLane="best" departPos="random_free" departSpeed="max" color="47,131,118">
        <route edges="-3998612#2 -3998612#1 3998645#0 3998645#1 3998645#2"/>
    </vehicle>
    <vehicle id="Area Flow 28-163" type="Default" depart="26.00" departLane="best" departPos="random_free" departSpeed="max" color="47,131,118">
        <route edges="10573414#1 3013106#0 3013106#1 3013106#2 4319352#1 44069041#0 25472134 30751813 -35842306#1 -35842306#0 -31777493#1 -31777493#0"/>
    </vehicle>
    <vehicle id="Area Flow 28-194" type="Default" depart="27.00" departLane="best" departPos="random_free" departSpeed="max" color="47,131,118">
        <route edges="3998643#0 4006726#1 4006726#2 -3998645#0 -3998612#0 30357194 25472299 30350448 30350449 4047309 30751813 -35842306#1 -35842306#0 35842306#0"/>
    </vehicle>
    <vehicle id="Area Flow 26-199" type="Default" depart="28.00" departLane="best" departPos="random_free" departSpeed="max" color="250,144,18">
        <route edges="23339459 30405358#1 85355912 85355911#0 85355911#1 30405356 5931612 30350450#0 -3998645#2 -3998615#3 -4099270#0"/>
    </vehicle>
    <vehicle id="Area Flow 28-138" type="Default" depart="28.00" departLane="best" departPos="random_free" departSpeed="max" color="47,131,118">
        <route edges="-3998615#0 3013106#2 4319352#1 44069041#0 44069041#1 25472079 30405352 30350445 -33174302#1 -33174302#0 -32270595 8402997 8402998#1 8402998#2 29900564#1 29900564#2 29900564#3 -10425128#1 -10425128#0 10425128#0"/>
    </vehicle>
    <vehicle id="Area Flow 26-14" type="Default" depart="29.00" departLane="best" departPos="random_free" departSpeed="max" color="250,144,18">
        <route edges="126606716 -126606716 23339459 30405358#1 85355912 85355911#0 85355911#1 30405356 5931612 30350450#0 30350450#1 30350450#2 4006702#0 -4006702#0"/>
    </vehicle>
    <vehicle id="Area Flow 26-189" type="Default" depart="29.00" departLane="best" departPos="random_free" departSpeed="max" color="250,144,18">
        <route edges="5445204#3 23570844#2 10419402 -4006693#1 -23605595 -8403007 -29900564#1 -8402998#2 -8402998#1 -8402997 32270595 33174302#0 33174302#1 31353573#0 31353573#1 -41973977"/>
    </vehicle>
    <vehicle id="Area Flow 28-105" type="Default" depart="29.00" departLane="best" departPos="random_free" departSpeed="max" color="47,131,118">
        <route edges="-3013106#1 3013106#1 3013106#2 4006702#0 28613737 94344941 94344940#0 -94344940#0"/>
    </vehicle>
    <vehicle id="Area Flow 28-132" type="Default" depart="29.00" departLane="best" departPos="random_free" departSpeed="max" color="47,131,118">
        <route edges="-4006725#0 4006725#0 -4872369 -4006724#1 -4047378 10573414#1 3013106#0 3013106#1 3013106#2 4006702#0 4006702#1 4900043 4900041#1 4900041#2 -23350930 23350930"/>
    </vehicle>
    <vehicle id="Area Flow 28-113" type="Default" depart="30.00" departLane="best" departPos="random_free" departSpeed="max" color="47,131,118">
        <route edges="-4006725#0 4006725#0 -4872369 -4006724#1 -4047378 10573414#1 3013106#0 3013106#1 3013106#2 4006702#0 4006702#1 4900043 4900041#1"/>
    </vehicle>
    <vehicle id="Area Flow 28-65" type="Default" depart="30.00" departLane="best" departPos="random_free" departSpeed="max" color="47,131,118">