<?xml version="1.0" encoding="UTF-8"?>

<!-- generated on Sun Feb 15 13:40:29 2015 by SUMO duarouter Version 0.22.0
<?xml version="1.0" encoding="UTF-8"?>

<configuration xmlns:xsi="http://www.w3.org/2001/XMLSchema-instance" xsi:noNamespaceSchemaLocation="http://sumo.dlr.de/xsd/duarouterConfiguration.xsd">

    <input>
        <net-file value="/home/hendrik/CEC/ITSCmap/trafficmodeler/gen8/erlangen.net.xml"/>
        <trip-files value="/home/hendrik/CEC/ITSCmap/trafficmodeler/gen8/sim.generated-trips.xml"/>
    </input>

    <output>
        <output-file value="/home/hendrik/CEC/ITSCmap/trafficmodeler/gen8/erlangen.rou.xml"/>
    </output>

    <processing>
        <ignore-errors value="true"/>
        <repair value="true"/>
    </processing>

    <defaults>
        <departlane value="best"/>
        <departpos value="random_free"/>
        <departspeed value="max"/>
    </defaults>

    <time>
        <begin value="0"/>
        <end value="540"/>
    </time>

    <random_number>
        <seed value="1000"/>
    </random_number>

</configuration>
-->

<routes xmlns:xsi="http://www.w3.org/2001/XMLSchema-instance" xsi:noNamespaceSchemaLocation="http://sumo.dlr.de/xsd/routes_file.xsd">
    <vType id="Default" length="5.00" maxSpeed="70.00">
        <carFollowing-Krauss accel="2.60" decel="4.50" sigma="0.50"/>
    </vType>
    <vehicle id="Hotspot 37-Out-215" type="Default" depart="0.00" departLane="best" departPos="random_free" departSpeed="max" color="55,80,51">
        <route edges="4006688#2 4006688#3 4006688#4 29900561#0 29900561#1 32270595 33174302#0 33174302#1 4686970#0 4686970#1 122161381 30350448 8364476 30350450#0 30350450#1 30350450#2 4006702#0 31255203#0 -31241851#2 -31241851#1 -31241851#0"/>
    </vehicle>
    <vehicle id="Hotspot 37-Out-37" type="Default" depart="0.00" departLane="best" departPos="random_free" departSpeed="max" color="55,80,51">
        <route edges="4392769 28269601 37591481 -113939241 113939244#0 113939244#1 113939244#2 -126606716 23339459 30405358#1"/>
    </vehicle>
    <vehicle id="Hotspot 37-Out-132" type="Default" depart="1.00" departLane="best" departPos="random_free" departSpeed="max" color="55,80,51">
        <route edges="-8403001 8403001 29900561#0 29900561#1 32270595 33174302#0 33174302#1 4686970#0 25472257 -30357194 3998612#0 -4006725#1 -4872369 -4006724#1 4006724#1"/>
    </vehicle>
    <vehicle id="Hotspot 37-Out-251" type="Default" depart="1.00" departLane="best" departPos="random_free" departSpeed="max" color="55,80,51">
        <route edges="32302591#1 32302591#2 32302591#3 32302591#4 32302591#5 33174302#0 33174302#1 31353573#0 31353573#1 -3998613#2 -3998613#1 3998613#1"/>
    </vehicle>
    <vehicle id="Hotspot 37-Out-274" type="Default" depart="3.00" departLane="best" departPos="random_free" departSpeed="max" color="55,80,51">
        <route edges="32271499 41973977 -3998613#2 -3998613#1 -3998613#0 3998612#0 3998612#1 3998612#2 3013106#0 3013106#1 3013106#2 4006702#0 28613737 94344941 94344940#0 -94344940#0"/>
    </vehicle>
    <vehicle id="Hotspot 37-Out-211" type="Default" depart="4.00" departLane="best" departPos="random_free" departSpeed="max" color="55,80,51">
        <route edges="28269601 37591481 -113939241 113939244#0 113939244#1 113939244#2 -126606716 23339459 30405358#1 85355912 85355911#0 25472101 30405352 30350445 4686970#0 25472257"/>
    </vehicle>
    <vehicle id="Hotspot 37-Out-84" type="Default" depart="4.00" departLane="best" departPos="random_free" departSpeed="max" color="55,80,51">
        <route edges="32302591#1 32302591#2 32302591#3 32302591#4 32302591#5 -32270595 8402997 8402998#1 8402998#2 29900564#1 29900564#2 -29900564#2"/>
    </vehicle>
    <vehicle id="Hotspot 37-Out-183" type="Default" depart="6.00" departLane="best" departPos="random_free" departSpeed="max" color="55,80,51">
        <route edges="8403001 29900561#0 29900561#1 32270595 33174302#0 33174302#1 4686970#0 4686970#1 122161381 30350448 8364476 30350450#0 30350450#1 30350450#2 4006702#0 31255203#0 -31241851#2 -31241851#1 -31241851#0 -31241816#1 -31241816#0"/>
    </vehicle>
    <vehicle id="Hotspot 37-Out-209" type="Default" depart="9.00" departLane="best" departPos="random_free" departSpeed="max" color="55,80,51">
        <route edges="-10712011 -4006688#0 31401017#1 31401017#2 25398494#0 113939242#2 113939241 -37591481"/>
    </vehicle>
    <vehicle id="Hotspot 37-Out-146" type="Default" depart="11.00" departLane="best" departPos="random_free" departSpeed="max" color="55,80,51">
        <route edges="-4006684 4006674#3 4006674#4 8403001 29900561#0 29900561#1 32270595 33174302#0 33174302#1 4686970#0 4686970#1 122161381 30350448 30350449 4400949 31982182#0 4047241 4797872 4797871 4006668 23339459 30405358#1"/>
    </vehicle>
    <vehicle id="Hotspot 37-Out-270" type="Default" depart="14.00" departLane="best" departPos="random_free" departSpeed="max" color="55,80,51">
        <route edges="4006674#3 4006674#4 8403001 29900561#0 29900561#1 32270595 33174302#0 33174302#1 4686970#0 4686970#1 122161381 30350448 8364476 30350450#0 30350450#1 -3998643#2 -3998643#1"/>
    </vehicle>
    <vehicle id="Hotspot 37-Out-124" type="Default" depart="18.00" departLane="best" departPos="random_free" departSpeed="max" color="55,80,51">
        <route edges="4006674#3 4006674#4 8403001 29900564#0 29900564#1 29900564#2 29900564#3 29900564#4 29900564#5 -29900564#5"/>
    </vehicle>
    <vehicle id="Hotspot 37-Out-393" type="Default" depart="18.00" departLane="best" departPos="random_free" departSpeed="max" color="55,80,51">
        <route edges="4006683 4006674#2 4006674#3 4006674#4 8403001 29900561#0 29900561#1 32270595 33174302#0 33174302#1 4686970#0 4686970#1 122161381 30350448 8364476 30350450#0 30350450#1 30350450#2 4006702#0 28613737 94344941 94344940#0 -28613727#1 -28613727#0"/>
    </vehicle>
    <vehicle id="Hotspot 37-Out-32" type="Default" depart="19.00" departLane="best" departPos="random_free" departSpeed="max" color="55,80,51">
        <route edges="8402998#0 -8402997 32270595 33174302#0 33174302#1 4686970#0 4686970#1 122161381 30350448 8364476 30350450#0 30350450#1 30350450#2 4006702#0 28613737 94344941 94344940#0 94344940#2 -54105725 54105725"/>
    </vehicle>
    <vehicle id="Hotspot 37-Out-35" type="Default" depart="20.00" departLane="best" departPos="random_free" departSpeed="max" color="55,80,51">
        <route edges="4006684 32302591#3 32302591#4 32302591#5 33174302#0 33174302#1 4686970#0 4686970#1 122161381 30350448 8364476 30350450#0 30350450#1 30350450#2 4006702#0 31255203#0 -31241851#2 -31241851#1 -31241851#0 -31241816#1 -31241816#0 31241816#0"/>
    </vehicle>
    <vehicle id="Hotspot 37-Out-96" type="Default" depart="20.00" departLane="best" departPos="random_free" departSpeed="max" color="55,80,51">
        <route edges="-29900564#0 29900561#0 29900561#1 32270595 33174302#0 33174302#1 4686970#0 4686970#1 122161381 30350448 30350449 4400949 31982182#0 4047241 4797872 4797871 -15259223 15259223"/>
    </vehicle>
    <vehicle id="Hotspot 37-Out-27" type="Default" depart="21.00" departLane="best" departPos="random_free" departSpeed="max" color="55,80,51">
        <route edges="-4006675 -23605600#1 4006674#4 8403001 29900561#0 29900561#1 32270595 33174302#0 33174302#1 4686970#0 4686970#1 122161381 30350448 8364476 30350450#0 30350450#1 30350450#2 4006702#0 4006702#1 4006702#2"/>
    </vehicle>
    <vehicle id="Hotspot 37-Out-6" type="Default" depart="23.00" departLane="best" departPos="random_free" departSpeed="max" color="55,80,51">
        <route edges="-32302591#3 32302591#3 32302591#4 32302591#5 33174302#0 33174302#1 4686970#0 4686970#1 122161381 30350448 30350449 4047309 30751813 -35842306#1 -35842306#0 -4900741 -4900739#2 4900739#2"/>
    </vehicle>
    <vehicle id="Hotspot 37-Out-376" type="Default" depart="24.00" departLane="best" departPos="random_free" departSpeed="max" color="55,80,51">
        <route edges="4006683 4006674#2 4006674#3 4006674#4 8403001 29900561#0 29900561#1 32270595 33174302#0 33174302#1 4686970#0 4686970#1 122161381 30350448 8364476 30350450#0 30350450#1 30350450#2 4006702#0 4006702#1 4006702#2 -28269598"/>
    </vehicle>
    <vehicle id="Hotspot 37-Out-133" type="Default" depart="25.00" departLane="best" departPos="random_free" departSpeed="max" color="55,80,51">
        <route edges="31401018 29900567 31401017#0 4006688#0 4006688#1 4006688#2 4006688#3 4006688#4 29900561#0 29900561#1 32270595 33174302#0 33174302#1 31353573#0 31353573#1 -3998613#2 4006740 -4006740"/>
    </vehicle>
    <vehicle id="Hotspot 37-Out-179" type="Default" depart="28.00" departLane="best" departPos="random_free" departSpeed="max" color="55,80,51">
        <route edges="41973977 -3998613#2 -3998613#1 -3998613#0 3998612#0 3998612#1 3998612#2 3013106#0 3013106#1 3013106#2 4006702#0 28613737"/>
    </vehicle>
    <vehicle id="Hotspot 37-Out-203" type="Default" depart="33.00" departLane="best" departPos="random_free" departSpeed="max" color="55,80,51">
        <route edges="32302591#1 32302591#2 32302591#3 32302591#4 32302591#5 -32270595 8402997 8402998#1 8402998#2 29900564#1 8403007 23605595 4006693#1 -4006693#1"/>
    </vehicle>
    <vehicle id="Hotspot 37-Out-395" type="Default" depart="33.00" departLane="best" departPos="random_free" departSpeed="max" color="55,80,51">
        <route edges="-41973977 41973977 -31353573#1 -31353573#0 -33174302#1 -33174302#0 -29900565#3 -29900565#2 -29900565#1 -29900565#0 -29900564#5"/>
    </vehicle>
    <vehicle id="Hotspot 37-Out-374" type="Default" depart="34.00" departLane="best" departPos="random_free" departSpeed="max" color="55,80,51">
        <route edges="29900561#1 8402997 8402998#1 8402998#2 29900564#1 29900564#2 29900564#3 29900564#4 -29900564#4"/>
    </vehicle>
    <vehicle id="Hotspot 37-Out-101" type="Default" depart="35.00" departLane="best" departPos="random_free" departSpeed="max" color="55,80,51">
        <route edges="32302591#4 32302591#5 33174302#0 33174302#1 4686970#0 25472257 -30357194 3998612#0 -4006725#1 -4872369 -4006724#1 4006724#1"/>
    </vehicle>
    <vehicle id="Hotspot 37-Out-294" type="Default" depart="36.00" departLane="best" departPos="random_free" departSpeed="max" color="55,80,51">
        <route edges="-31401018 31401018 29900567 31401017#0 4006688#0 4006688#1 4006688#2 4006688#3 4006688#4 29900561#0 29900561#1 32270595 33174302#0 33174302#1 4686970#0 4686970#1 122161381 30350448 8364476 30350450#0 30350450#1 30350450#2 4006702#0 31255203#0 -31241851#2 -31241851#1 -31241851#0 -31241848 -31241834#0"/>
    </vehicle>
    <vehicle id="Hotspot 37-Out-216" type="Default" depart="37.00" departLane="best" departPos="random_free" departSpeed="max" color="55,80,51">
        <route edges="29900561#0 -29900561#0 29900564#0 29900564#1 29900564#2 29900564#3 29900564#4 29900564#5 -4006690 -4006693#4"/>
    </vehicle>
    <vehicle id="Hotspot 37-Out-45" type="Default" depart="38.00" departLane="best" departPos="random_free" departSpeed="max" color="55,80,51">
        <route edges="33174302#1 4686970#0 25472257 -30357194 3998612#0 -4006725#1 -4872369"/>
    </vehicle>
    <vehicle id="Hotspot 37-Out-287" type="Default" depart="40.00" departLane="best" departPos="random_free" departSpeed="max" color="55,80,51">
        <route edges="4006676 -4006676 32302591#4 32302591#5 -32270595 8402997 8402998#1 8402998#2 29900564#1 8403007 23605595 4006693#1 -10419402 10419402"/>
    </vehicle>
    <vehicle id="Hotspot 37-Out-263" type="Default" depart="41.00" departLane="best" departPos="random_free" departSpeed="max" color="55,80,51">
        <route edges="4006674#4 8403001 29900561#0 29900561#1 32270595 33174302#0 33174302#1 4686970#0 4686970#1 122161381 30350448 8364476 30350450#0 30350450#1 30350450#2 4006702#0 4006702#1 4900043 4900041#1 4900041#2 -23350930 23350930"/>
    </vehicle>
    <vehicle id="Hotspot 37-Out-202" type="Default" depart="42.00" departLane="best" departPos="random_free" departSpeed="max" color="55,80,51">
        <route edges="-4006674#4 4006674#4 8403001 29900561#0 29900561#1 32270595 33174302#0 33174302#1 4686970#0 4686970#1 122161381 30350448 8364476 30350450#0 30350450#1 30350450#2 4006702#0 31255203#0 31255203#1"/>
    </vehicle>
    <vehicle id="Hotspot 37-Out-247" type="Default" depart="43.00" departLane="best" departPos="random_free" departSpeed="max" color="55,80,51">
        <route edges="-4006674#0 4006674#0 4006674#1 4006674#2 4006674#3 4006674#4 8403001 29900561#0 29900561#1 32270595 33174302#0 33174302#1 4686970#0 25472257 -30357194 3998612#0 3998612#1 3998612#2 3013109"/>
    </vehicle>
    <vehicle id="Hotspot 37-Out-192" type="Default" depart="47.00" departLane="best" departPos="random_free" departSpeed="max" color="55,80,51">
        <route edges="8402998#2 -8402998#2 -8402998#1 -8402997 32270595 33174302#0 33174302#1 4686970#0 25472257 -30357194 3998612#0 -4006725#1 -4872369 4872369"/>
    </vehicle>
    <vehicle id="Hotspot 37-Out-195" type="Default" depart="47.00" departLane="best" departPos="random_free" departSpeed="max" color="55,80,51">
        <route edges="4006688#0 4006688#1 4006688#2 4006688#3 4006688#4 29900561#0 29900561#1 32270595 33174302#0 33174302#1 4686970#0 4686970#1 122161381 30350448 8364476 30350450#0 30350450#1 30350450#2 4006702#0 31255203#0 31255203#1 -31255203#1"/>
    </vehicle>
    <vehicle id="Hotspot 37-Out-318" type="Default" depart="49.00" departLane="best" departPos="random_free" departSpeed="max" color="55,80,51">
        <route edges="4006674#1 4006674#2 4006674#3 4006674#4 8403001 29900561#0 29900561#1 32270595 33174302#0 33174302#1 4686970#0 4686970#1 122161381 30350448 8364476 30350450#0 30350450#1 30350450#2 4319353 4319349"/>
    </vehicle>
    <vehicle id="Hotspot 37-Out-102" type="Default" depart="50.00" departLane="best" departPos="random_free" departSpeed="max" color="55,80,51">
        <route edges="8403001 29900561#0 29900561#1 32270595 33174302#0 33174302#1 4686970#0 25472257 -30357194 3998612#0 -4006725#1 -4872369 -4006724#1 -4047378 -10573414#0"/>
    </vehicle>
    <vehicle id="Hotspot 37-Out-53" type="Default" depart="50.00" departLane="best" departPos="random_free" departSpeed="max" color="55,80,51">
        <route edges="-4006688#3 4006688#3 4006688#4 29900561#0 29900561#1 32270595 33174302#0 33174302#1 4686970#0 4686970#1 122161381 30350448 8364476 30350450#0 30350450#1 30350450#2 4006702#0 31255203#0 -31241851#2 -31241851#1 -31241851#0"/>
    </vehicle>
    <vehicle id="Hotspot 37-Out-141" type="Default" depart="51.00" departLane="best" departPos="random_free" departSpeed="max" color="55,80,51">
        <route edges="-29900567 29900567 31401017#0 4006688#0 4006688#1 4006688#2 4006688#3 4006688#4 29900561#0 29900561#1 32270595 33174302#0 33174302#1 4686970#0 25472257 -30357194 3998612#0 -4006725#1 -4872369 -4006724#1"/>
    </vehicle>
    <vehicle id="Hotspot 37-Out-212" type="Default" depart="51.00" departLane="best" departPos="random_free" departSpeed="max" color="55,80,51">
        <route edges="31401017#0 4006688#0 4006688#1 4006688#2 4006688#3 4006688#4 29900561#0 29900561#1 32270595 33174302#0 33174302#1 4686970#0 4686970#1 122161381 30350448 8364476 30350450#0 30350450#1 30350450#2 4006702#0 28613737 94344941 94344940#0 -28613727#1 -28613727#0 28613727#0"/>
    </vehicle>
    <vehicle id="Hotspot 37-Out-259" type="Default" depart="53.00" departLane="best" departPos="random_free" departSpeed="max" color="55,80,51">
        <route edges="32302591#3 32302591#4 32302591#5 33174302#0 33174302#1 4686970#0 4686970#1 122161381 30350448 8364476 30350450#0 30350450#1 30350450#2 4006702#0 28613737 94344941 94344940#0 94344940#2 94344940#3 -94344940#3"/>
    </vehicle>
    <vehicle id="Hotspot 37-Out-89" type="Default" depart="56.00" departLane="best" departPos="random_free" departSpeed="max" color="55,80,51">
        <route edges="-3998613#2 3998613#2 -31353573#1 -31353573#0 4686970#0 4686970#1 122161381 30350448 30350449"/>
    </vehicle>
    <vehicle id="Hotspot 37-Out-295" type="Default" depart="57.00" departLane="best" departPos="random_free" departSpeed="max" color="55,80,51">
        <route edges="-29900565#3 29900565#3 33174302#0 33174302#1 4686970#0 4686970#1 122161381 30350448 8364476 30350450#0 30350450#1 30350450#2 4006702#0 28613737 94344941 94344940#0 94344940#2 -54105725 54105725"/>
    </vehicle>
    <vehicle id="Hotspot 37-Out-82" type="Default" depart="58.00" departLane="best" departPos="random_free" departSpeed="max" color="55,80,51">
        <route edges="10712013 -10712013 4006688#3 4006688#4 29900561#0 29900561#1 32270595 33174302#0 33174302#1 4686970#0 4686970#1 122161381 30350448 8364476 30350450#0 30350450#1 30350450#2 4006702#0 31255203#0 -31241851#2 -31241851#1 -31241851#0 31241816#3"/>
    </vehicle>
    <vehicle id="Hotspot 37-Out-398" type="Default" depart="59.00" departLane="best" departPos="random_free" departSpeed="max" color="55,80,51">
        <route edges="-10712011 -4006688#0 31401017#1 31401017#2 25398494#0 113939244#1 113939244#2 -126606716 -4006668"/>
    </vehicle>
    <vehicle id="Hotspot 37-Out-171" type="Default" depart="61.00" departLane="best" departPos="random_free" departSpeed="max" color="55,80,51">
        <route edges="10425130 4006688#4 29900561#0 29900561#1 32270595 33174302#0 33174302#1 4686970#0 4686970#1 122161381 30350448 8364476 30350450#0 30350450#1 30350450#2 4006702#0 4006702#1 4006702#2 -23805514#1 23805514#1"/>
    </vehicle>
    <vehicle id="Hotspot 37-Out-369" type="Default" depart="61.00" departLane="best" departPos="random_free" departSpeed="max" color="55,80,51">
        <route edges="23605600#1 -23605600#1 4006674#4 8403001 29900561#0 29900561#1 32270595 33174302#0 33174302#1 4686970#0 4686970#1 122161381 30350448 8364476 30350450#0 30350450#1 30350450#2 4006702#0 31255203#0 -31241851#2 -31241851#1 -31241851#0 -31241816#1 -31241816#0 -31241855#0"/>
    </vehicle>
    <vehicle id="Hotspot 37-Out-290" type="Default" depart="62.00" departLane="best" departPos="random_free" departSpeed="max" color="55,80,51">
        <route edges="4006688#3 4006688#4 29900561#0 29900561#1 32270595 33174302#0 33174302#1 4686970#0 4686970#1 122161381 30350448 8364476 30350450#0 30350450#1 30350450#2 4006702#0 31255203#0 -31241851#2 -31241851#1 -31241851#0 31241816#3 31241835#1 31241834#0"/>
    </vehicle>
    <vehicle id="Hotspot 37-Out-296" type="Default" depart="62.00" departLane="best" departPos="random_free" departSpeed="max" color="55,80,51">
        <route edges="29900567 31401017#0 4006688#0 4006688#1 4006688#2 4006688#3 4006688#4 29900561#0 29900561#1 32270595 33174302#0 33174302#1 4686970#0 4686970#1 122161381 30350448 8364476 30350450#0 30350450#1 30350450#2 4006702#0 28613737 94344941 94344940#0 94344940#2 -94344940#2"/>
    </vehicle>
    <vehicle id="Hotspot 37-Out-307" type="Default" depart="64.00" departLane="best" departPos="random_free" departSpeed="max" color="55,80,51">
        <route edges="4006684 32302591#3 32302591#4 32302591#5 33174302#0 33174302#1 4686970#0 4686970#1 122161381 30350448 8364476 30350450#0 30350450#1 30350450#2 4006702#0 31255203#0 -31241851#2 -31241851#1 -31241851#0 -31241816#1 31241816#1"/>
    </vehicle>
    <vehicle id="Hotspot 37-Out-2" type="Default" depart="65.00" departLane="best" departPos="random_free" departSpeed="max" color="55,80,51">
        <route edges="-29900565#3 -29900565#2 -29900565#1 -29900565#0 -4006690 -4006693#4 -4006693#3 -4006693#2 -10419402 10419402"/>
    </vehicle>
    <vehicle id="Hotspot 37-Out-218" type="Default" depart="66.00" departLane="best" departPos="random_free" departSpeed="max" color="55,80,51">
        <route edges="-8402998#1 -8402997 32270595 33174302#0 33174302#1 4686970#0 4686970#1 122161381 30350448 8364476 30350450#0 30350450#1"/>
    </vehicle>
    <vehicle id="Hotspot 37-Out-164" type="Default" depart="67.00" departLane="best" departPos="random_free" departSpeed="max" color="55,80,51">
        <route edges="10425131 -10425131 4006688#4 29900561#0 29900561#1 32270595 33174302#0 33174302#1 4686970#0 4686970#1 122161381 30350448 8364476 30350450#0 30350450#1 30350450#2 4006702#0 28613737 94344941 94344940#0 -28613727#1 28613727#1"/>
    </vehicle>
    <vehicle id="Hotspot 37-Out-66" type="Default" depart="67.00" departLane="best" departPos="random_free" departSpeed="max" color="55,80,51">
        <route edges="-4006683 32302591#2 32302591#3 32302591#4 32302591#5 -32270595 8402997 8402998#1 8402998#2 29900564#1 8403007 -23341293"/>
    </vehicle>
    <vehicle id="Hotspot 37-Out-7" type="Default" depart="67.00" departLane="best" departPos="random_free" departSpeed="max" color="55,80,51">
        <route edges="-31401017#0 31401017#0 4006688#0 4006688#1 4006688#2 4006688#3 4006688#4 29900561#0 29900561#1 32270595 33174302#0 33174302#1 4686970#0 4686970#1 122161381 30350448 8364476 30350450#0 30350450#1 -3998643#2 3998615#2"/>
    </vehicle>
    <vehicle id="Hotspot 37-Out-227" type="Default" depart="68.00" departLane="best" departPos="random_free" departSpeed="max" color="55,80,51">
        <route edges="4006688#1 -4006688#1 -4006688#0 31401017#1 31401017#2 4006693#0 4006693#1 -10419402 -23570844#2 -23570844#1 23570844#1"/>
    </vehicle>
    <vehicle id="Hotspot 37-Out-1" type="Default" depart="69.00" departLane="best" departPos="random_free" departSpeed="max" color="55,80,51">
        <route edges="-33174302#0 -32270595 -29900561#1 -29900561#0 -4006688#4 -4006688#3 -4006688#2 -4006688#1 -4006688#0 31401017#1 31401017#2 25398494#0 113939244#1 5445204#1 5445204#2 5445204#3"/>
    </vehicle>
    <vehicle id="Hotspot 37-Out-304" type="Default" depart="69.00" departLane="best" departPos="random_free" departSpeed="max" color="55,80,51">
        <route edges="4006676 -4006676 32302591#4 32302591#5 33174302#0 33174302#1 4686970#0 4686970#1 122161381 30350448 30350449 4400949 31982182#0 4047241 4797872 4797871 4006668 23339459"/>
    </vehicle>
    <vehicle id="Hotspot 37-Out-28" type="Default" depart="70.00" departLane="best" departPos="random_free" departSpeed="max" color="55,80,51">
        <route edges="-32302591#5 32302591#5 -32270595 -29900561#1 -29900561#0 -4006688#4 -4006688#3 -4006688#2 -4006688#1 -4006688#0 31401017#1 31401017#2 25398494#0 113939244#1 5445204#1 5445204#2 -5445204#2"/>
    </vehicle>
    <vehicle id="Hotspot 37-Out-355" type="Default" depart="71.00" departLane="best" departPos="random_free" departSpeed="max" color="55,80,51">
        <route edges="-4006675 23605600#2 29900567 31401017#0 31401017#1 31401017#2 25398494#0 113939244#1 5445204#1 5445204#2 39539626 -39539626"/>
    </vehicle>
    <vehicle id="Hotspot 37-Out-371" type="Default" depart="72.00" departLane="best" departPos="random_free" departSpeed="max" color="55,80,51">
        <route edges="4006688#2 4006688#3 4006688#4 29900561#0 29900561#1 32270595 33174302#0 33174302#1 4686970#0 4686970#1 122161381 30350448 8364476 30350450#0 30350450#1 30350450#2 4006702#0 31255203#0 -31241851#2 -31241851#1 -31241851#0 -31241816#1 -31241816#0 31241855#1"/>
    </vehicle>
    <vehicle id="Hotspot 37-Out-368" type="Default" depart="76.00" departLane="best" departPos="random_free" departSpeed="max" color="55,80,51">
        <route edges="-4006674#1 4006674#1 4006674#2 4006674#3 4006674#4 8403001 29900564#0 29900564#1 29900564#2 29900564#3 -29900564#3"/>
    </vehicle>
    <vehicle id="Hotspot 37-Out-42" type="Default" depart="82.00" departLane="best" departPos="random_free" departSpeed="max" color="55,80,51">
        <route edges="-8402998#1 -8402997 32270595 33174302#0 33174302#1 4686970#0 4686970#1 122161381 30350448 8364476 30350450#0 30350450#1 30350450#2 4006702#0 31255203#0 -31241851#2 -31241851#1 -31241851#0 -31241848 -31241834#0"/>
    </vehicle>
    <vehicle id="Hotspot 37-Out-317" type="Default" depart="85.00" departLane="best" departPos="random_free" departSpeed="max" color="55,80,51">
        <route edges="31401017#0 31401017#1 31401017#2 25398494#0 113939244#1 5445204#1 5445204#2 -5445204#2"/>
    </vehicle>
    <vehicle id="Hotspot 37-Out-257" type="Default" depart="90.00" departLane="best" departPos="random_free" departSpeed="max" color="55,80,51">
        <route edges="-23605600#2 -23605600#1 4006674#4 8403001 29900561#0 29900561#1 32270595 33174302#0 33174302#1 4686970#0 4686970#1 122161381 30350448 8364476 30350450#0 30350450#1 30350450#2 4319352#1 44069041#0"/>
    </vehicle>
    <vehicle id="Hotspot 37-Out-293" type="Default" depart="90.00" departLane="best" departPos="random_free" departSpeed="max" color="55,80,51">
        <route edges="-31401017#0 31401017#0 31401017#1 31401017#2 4006693#0 4006693#1 4006693#2 4006693#3 4006693#4 4006690 -4006690"/>
    </vehicle>
    <vehicle id="Hotspot 37-Out-345" type="Default" depart="90.00" departLane="best" departPos="random_free" departSpeed="max" color="55,80,51">
        <route edges="4006688#1 4006688#2 4006688#3 4006688#4 29900561#0 29900561#1 32270595 33174302#0 33174302#1 4686970#0 4686970#1 122161381 30350448 8364476 30350450#0 30350450#1 30350450#2 4006702#0 31255203#0 -31241851#2 -31241851#1 -31241851#0 -31241816#1 -31241816#0 31241855#1"/>
    </vehicle>
    <vehicle id="Hotspot 37-Out-160" type="Default" depart="91.00" departLane="best" departPos="random_free" departSpeed="max" color="55,80,51">
        <route edges="-9643180 29900561#1 32270595 33174302#0 33174302#1 4686970#0 4686970#1 122161381 30350448 8364476 30350450#0 30350450#1 30350450#2"/>
    </vehicle>
    <vehicle id="Hotspot 37-Out-50" type="Default" depart="91.00" departLane="best" departPos="random_free" departSpeed="max" color="55,80,51">
        <route edges="4006688#4 29900564#0 29900564#1 8403007 23605595 -4006693#0"/>
    </vehicle>
    <vehicle id="Hotspot 37-Out-5" type="Default" depart="92.00" departLane="best" departPos="random_free" departSpeed="max" color="55,80,51">
        <route edges="29900564#1 8403007 23605595 -4006693#0 25398494#0 113939244#1 5445204#1 -23360299 23360299"/>
    </vehicle>
    <vehicle id="Hotspot 37-Out-9" type="Default" depart="92.00" departLane="best" departPos="random_free" departSpeed="max" color="55,80,51">
        <route edges="-10712011 4006688#1 4006688#2 4006688#3 4006688#4 29900561#0 29900561#1 32270595 33174302#0 33174302#1 4686970#0 4686970#1 122161381 30350448 30350449 4047309 30751813 -35842306#1 -35842306#0 -4900741 -4900739#2"/>
    </vehicle>
    <vehicle id="Hotspot 37-Out-362" type="Default" depart="94.00" departLane="best" departPos="random_free" departSpeed="max" color="55,80,51">
        <route edges="4006672 4006674#0 4006674#1 4006674#2 4006674#3 4006674#4 8403001 29900561#0 29900561#1 32270595 33174302#0 33174302#1 4686970#0 4686970#1 122161381 30350448 8364476 30350450#0 30350450#1 30350450#2 4006702#0 31255203#0 -31241851#2 -31241851#1 -31241851#0 31241816#3 31241835#1 -31241835#1"/>
    </vehicle>
    <vehicle id="Hotspot 37-Out-176" type="Default" depart="95.00" departLane="best" departPos="random_free" departSpeed="max" color="55,80,51">
        <route edges="23605600#2 29900567 31401017#0 4006688#0 4006688#1 4006688#2 4006688#3 4006688#4 29900561#0 29900561#1 32270595 33174302#0 33174302#1 4686970#0 4686970#1 122161381 30350448 8364476 30350450#0 30350450#1 30350450#2 4006702#0 28613737 94344941 94344940#0 67076129 -67076129"/>
    </vehicle>
    <vehicle id="Hotspot 37-Out-246" type="Default" depart="98.00" departLane="best" departPos="random_free" departSpeed="max" color="55,80,51">
        <route edges="-8402998#0 29900565#3 33174302#0 33174302#1 4686970#0 25472257 -30357194 3998612#0 3998612#1 3998643#0"/>
    </vehicle>
    <vehicle id="Hotspot 37-Out-99" type="Default" depart="98.00" departLane="best" departPos="random_free" departSpeed="max" color="55,80,51">
        <route edges="-32302591#0 32302591#0 32302591#1 32302591#2 32302591#3 32302591#4 32302591#5 33174302#0 33174302#1 4686970#0 4686970#1 122161381 30350448 30350449 4047309 30751813 -35842306#1 -35842306#0 -4900741 -4900739#2 -4900739#1 -4099309"/>
    </vehicle>
    <vehicle id="Hotspot 37-Out-222" type="Default" depart="101.00" departLane="best" departPos="random_free" departSpeed="max" color="55,80,51">
        <route edges="32270592#0 32270592#1 4047532 31401018 29900567 31401017#0 31401017#1 31401017#2 4006693#0 4006693#1 -10419402 -23570844#2 -23570844#1 23570844#1"/>
    </vehicle>
    <vehicle id="Hotspot 37-Out-52" type="Default" depart="103.00" departLane="best" departPos="random_free" departSpeed="max" color="55,80,51">
        <route edges="-4006688#2 4006688#2 4006688#3 4006688#4 29900561#0 29900561#1 32270595 33174302#0 33174302#1 4686970#0 4686970#1 122161381 30350448 8364476 30350450#0 30350450#1 -3998643#2 3998615#2"/>
    </vehicle>
    <vehicle id="Hotspot 37-Out-90" type="Default" depart="106.00" departLane="best" departPos="random_free" departSpeed="max" color="55,80,51">
        <route edges="4006674#0 4006674#1 4006674#2 4006674#3 4006674#4 8403001 29900564#0 29900564#1 8403007 23605595 4006693#1 4006693#2"/>
    </vehicle>
    <vehicle id="Hotspot 37-Out-126" type="Default" depart="108.00" departLane="best" departPos="random_free" departSpeed="max" color="55,80,51">
        <route edges="-8402998#2 -8402998#1 -8402997 32270595 33174302#0 33174302#1 4686970#0 4686970#1 122161381 30350448 8364476 30350450#0 -3998645#2 -3998645#1 -4006726#2 -4006726#1 -3998643#0"/>
    </vehicle>
    <vehicle id="Hotspot 37-Out-145" type="Default" depart="108.00" departLane="best" departPos="random_free" departSpeed="max" color="55,80,51">
        <route edges="-9643180 29900561#1 32270595 33174302#0 33174302#1 4686970#0 4686970#1 122161381 30350448 8364476 30350450#0 30350450#1 30350450#2 4006702#0 31255203#0 -31241851#2 -31241851#1 -31241851#0 31241816#3"/>
    </vehicle>
    <vehicle id="Hotspot 37-Out-208" type="Default" depart="108.00" departLane="best" departPos="random_free" departSpeed="max" color="55,80,51">
        <route edges="-4006688#4 4006688#4 29900564#0 29900564#1 29900564#2 29900564#3 -10425128#1 -10425128#0 10425128#0"/>
    </vehicle>