<?xml version="1.0" encoding="UTF-8"?>

<!-- generated on Sun Feb 15 13:40:39 2015 by SUMO duarouter Version 0.22.0
<?xml version="1.0" encoding="UTF-8"?>

<configuration xmlns:xsi="http://www.w3.org/2001/XMLSchema-instance" xsi:noNamespaceSchemaLocation="http://sumo.dlr.de/xsd/duarouterConfiguration.xsd">

    <input>
        <net-file value="/home/hendrik/CEC/ITSCmap/trafficmodeler/gen9/erlangen.net.xml"/>
        <trip-files value="/home/hendrik/CEC/ITSCmap/trafficmodeler/gen9/sim.generated-trips.xml"/>
    </input>

    <output>
        <output-file value="/home/hendrik/CEC/ITSCmap/trafficmodeler/gen9/erlangen.rou.xml"/>
    </output>

    <processing>
        <ignore-errors value="true"/>
        <repair value="true"/>
    </processing>

    <defaults>
        <departlane value="best"/>
        <departpos value="random_free"/>
        <departspeed value="max"/>
    </defaults>

    <time>
        <begin value="0"/>
        <end value="540"/>
    </time>

    <random_number>
        <seed value="1000"/>
    </random_number>

</configuration>
-->

<routes xmlns:xsi="http://www.w3.org/2001/XMLSchema-instance" xsi:noNamespaceSchemaLocation="http://sumo.dlr.de/xsd/routes_file.xsd">
    <vType id="Default" length="5.00" maxSpeed="70.00">
        <carFollowing-Krauss accel="2.60" decel="4.50" sigma="0.50"/>
    </vType>
    <vehicle id="Area Flow 38-237" type="Default" depart="1.00" departLane="best" departPos="random_free" departSpeed="max" color="84,218,248">
        <route edges="4006705#1 -4006705#1 4006703#1 28269598 -4006702#2 -4006702#1 -4006702#0 4319352#1 44069041#0 44069041#1 4400949 31982182#0 4047241 4797872 4797871 4006668 126606716 113939242#0 5445204#1 5445204#2 5445204#3 -23570844#1"/>
    </vehicle>
    <vehicle id="Area Flow 38-255" type="Default" depart="1.00" departLane="best" departPos="random_free" departSpeed="max" color="84,218,248">
        <route edges="-31720632#0 -4006705#2 -4006705#1 4006703#1 28269598 -4006702#2 -4006702#1 -4006702#0 4319352#1 44069041#0 44069041#1 4400949 31982182#0 4047241 4797872 4797871 4006668 23339459"/>
    </vehicle>
    <vehicle id="Area Flow 40-187" type="Default" depart="5.00" departLane="best" departPos="random_free" departSpeed="max" color="38,177,20">
        <route edges="29900565#3 33174302#0 33174302#1 4686970#0 4686970#1 122161381 30350448 8364476 30350450#0 30350450#1 30350450#2 4006702#0 31255203#0 -31241851#2 -31241851#1 31261347 -31261347"/>
    </vehicle>
    <vehicle id="Area Flow 38-88" type="Default" depart="6.00" departLane="best" departPos="random_free" departSpeed="max" color="84,218,248">
        <route edges="-25210699 25210699 -4006705#1 4006703#1 28269598 -4006702#2 -4006702#1 -4006702#0 4319352#1 44069041#0 44069041#1 4400949 31982182#0 4047241 4797872 4797871"/>
    </vehicle>
    <vehicle id="Area Flow 38-104" type="Default" depart="7.00" departLane="best" departPos="random_free" departSpeed="max" color="84,218,248">
        <route edges="4006703#1 28269598 -4006702#2 -4006702#1 -4006702#0 4319352#1 44069041#0 44069041#1 4400949 31982182#0 4047241 4797872 4797871 4006668 126606716 113939242#0 5445204#1 5445204#2 5445204#3 -23570844#1 23570844#1"/>
    </vehicle>
    <vehicle id="Area Flow 38-228" type="Default" depart="7.00" departLane="best" departPos="random_free" departSpeed="max" color="84,218,248">
        <route edges="-25210699 25210699 -4006705#1 4006703#1 28269598 -4006702#2 -4006702#1 -4006702#0 4319352#1 44069041#0 44069041#1 4400949 31982182#0 4047241"/>
    </vehicle>
    <vehicle id="Area Flow 40-184" type="Default" depart="8.00" departLane="best" departPos="random_free" departSpeed="max" color="38,177,20">
        <route edges="19796637 122161381 30350448 8364476 30350450#0 -3998645#2 -3998645#1 -4006726#2 -4006726#1"/>
    </vehicle>
    <vehicle id="Area Flow 38-111" type="Default" depart="9.00" departLane="best" departPos="random_free" departSpeed="max" color="84,218,248">
        <route edges="-4006701 -4006702#2 -4006702#1 -4006702#0 4319352#1 44069041#0 44069041#1 4400949 31982182#0 4047241 4797872 4797871 4006668 -4006668"/>
    </vehicle>
    <vehicle id="Area Flow 38-5" type="Default" depart="9.00" departLane="best" departPos="random_free" departSpeed="max" color="84,218,248">
        <route edges="4006705#0 4006703#1 28269598 -4006702#2 -4006702#1 -4006702#0 4319352#1 44069041#0 44069041#1 4400949 31982182#0 4047241 4797872 4797871 -15259223"/>
    </vehicle>
    <vehicle id="Area Flow 40-135" type="Default" depart="10.00" departLane="best" departPos="random_free" departSpeed="max" color="38,177,20">
        <route edges="30357194 -30357194 3998612#0 -4006725#1 -4872369 -4006724#1 -4006724#0 4006724#0"/>
    </vehicle>
    <vehicle id="Area Flow 40-84" type="Default" depart="11.00" departLane="best" departPos="random_free" departSpeed="max" color="38,177,20">
        <route edges="32270593 -32270593 4006674#0 4006674#1 4006674#2 4006674#3 4006674#4 8403001 29900561#0 29900561#1 32270595 33174302#0 33174302#1 4686970#0 4686970#1 122161381 30350448 8364476 30350450#0 -3998645#2 -3998615#3 4099270#1"/>
    </vehicle>
    <vehicle id="Area Flow 38-205" type="Default" depart="13.00" departLane="best" departPos="random_free" departSpeed="max" color="84,218,248">
        <route edges="-31720632#1 -31720632#0 -4006705#2 -4006705#1 4006703#1 28269598 -4006702#2 -4006702#1 -4006702#0 4319352#1 44069041#0 44069041#1 4400949 31982182#0 4047241 4797872 4797871 4006668"/>
    </vehicle>
    <vehicle id="Area Flow 38-101" type="Default" depart="14.00" departLane="best" departPos="random_free" departSpeed="max" color="84,218,248">
        <route edges="-4006705#1 4006703#1 28269598 -4006702#2 -4006702#1 -4006702#0 4319352#1 44069041#0 44069041#1 4400949 31982182#0 4047241 4797872 4797871 -15259223 15259223"/>
    </vehicle>
    <vehicle id="Area Flow 38-216" type="Default" depart="15.00" departLane="best" departPos="random_free" departSpeed="max" color="84,218,248">
        <route edges="25210699 -4006705#1 4006703#1 28269598 -4006702#2 -4006702#1 -4006702#0 4319352#1 44069041#0 44069041#1 4400949 31982182#0 4047241 4797872 4797871 4006668 23339459"/>
    </vehicle>
    <vehicle id="Area Flow 40-144" type="Default" depart="15.00" departLane="best" departPos="random_free" departSpeed="max" color="38,177,20">
        <route edges="-4006672 32302591#0 32302591#1 32302591#2 32302591#3 32302591#4 32302591#5 33174302#0 33174302#1 4686970#0 4686970#1 122161381 30350448 8364476 30350450#0 30350450#1 30350450#2 4006702#0 31255203#0 -31241851#2 -31241853#2 -31241853#1 -31241855#1"/>
    </vehicle>
    <vehicle id="Area Flow 38-15" type="Default" depart="16.00" departLane="best" departPos="random_free" departSpeed="max" color="84,218,248">
        <route edges="4006705#2 -4006705#2 -4006705#1 4006703#1 28269598 -4006702#2 -4006702#1 -4006702#0 4319352#1 44069041#0 44069041#1 4400949 31982182#0 4047241"/>
    </vehicle>
    <vehicle id="Area Flow 40-100" type="Default" depart="16.00" departLane="best" departPos="random_free" departSpeed="max" color="38,177,20">
        <route edges="4006688#0 4006688#1 4006688#2 4006688#3 4006688#4 29900561#0 29900561#1 32270595 33174302#0 33174302#1 4686970#0 4686970#1 122161381 30350448 8364476 30350450#0 30350450#1 30350450#2 4006702#0 31255203#0 -31241851#2 -31241853#2 31241853#2"/>
    </vehicle>
    <vehicle id="Area Flow 40-93" type="Default" depart="17.00" departLane="best" departPos="random_free" departSpeed="max" color="38,177,20">
        <route edges="4047309 30751813 4047446#0 4047446#1 25472079 30405352 19796637 122161390 -30357194 -32282774 32282774"/>
    </vehicle>
    <vehicle id="Area Flow 38-221" type="Default" depart="18.00" departLane="best" departPos="random_free" departSpeed="max" color="84,218,248">
        <route edges="-4006705#0 4006705#0 4006703#1 28269598 -4006702#2 -4006702#1 -4006702#0 4319352#1 44069041#0 44069041#1 4400949 31982182#0 4047241 4797872 4797871 4006668 126606716 113939242#0 5445204#1 5445204#2 5445204#3 -23570844#1"/>
    </vehicle>
    <vehicle id="Area Flow 38-261" type="Default" depart="25.00" departLane="best" departPos="random_free" departSpeed="max" color="84,218,248">
        <route edges="-4006703#0 4006703#0 4006703#1 28269598 -4006702#2 -4006702#1 -4006702#0 4319352#1 44069041#0 44069041#1 4400949 31982182#0 4047241 4797872 4797871 4006668 -4006668"/>
    </vehicle>
    <vehicle id="Area Flow 40-150" type="Default" depart="25.00" departLane="best" departPos="random_free" departSpeed="max" color="38,177,20">
        <route edges="4006676 -4006676 32302591#4 32302591#5 33174302#0 33174302#1 4686970#0 25472257 -30357194 30357194"/>
    </vehicle>
    <vehicle id="Area Flow 38-264" type="Default" depart="28.00" departLane="best" departPos="random_free" departSpeed="max" color="84,218,248">
        <route edges="-28269598 28269598 -4006702#2 -4006702#1 -4006702#0 4319352#1 44069041#0 44069041#1 4400949 31982182#0 4047241 4797872 4797871 -15259223 15259223"/>
    </vehicle>
    <vehicle id="Area Flow 40-48" type="Default" depart="29.00" departLane="best" departPos="random_free" departSpeed="max" color="38,177,20">
        <route edges="32270593 -32270593 4006674#0 4006674#1 4006674#2 4006674#3 4006674#4 8403001 29900561#0 29900561#1 32270595 33174302#0 33174302#1 4686970#0 25472257 -30357194 -32282774 32282774"/>
    </vehicle>
    <vehicle id="Area Flow 38-223" type="Default" depart="30.00" departLane="best" departPos="random_free" departSpeed="max" color="84,218,248">
        <route edges="28269598 -4006702#2 -4006702#1 -4006702#0 4319352#1 44069041#0 44069041#1 4400949 31982182#0 4047241 4797872 4797871 4006668"/>
    </vehicle>
    <vehicle id="Area Flow 38-35" type="Default" depart="31.00" departLane="best" departPos="random_free" departSpeed="max" color="84,218,248">
        <route edges="31720632#0 -31720632#0 -4006705#2 -4006705#1 4006703#1 28269598 -4006702#2 -4006702#1 -4006702#0 4319352#1 44069041#0 44069041#1 4400949 31982182#0 4047241 4797872 4797871 4006668 23339459"/>
    </vehicle>
    <vehicle id="Area Flow 40-119" type="Default" depart="31.00" departLane="best" departPos="random_free" departSpeed="max" color="38,177,20">
        <route edges="-4006682 32302591#1 32302591#2 32302591#3 32302591#4 32302591#5 33174302#0 33174302#1 4686970#0 4686970#1 122161381 30350448 8364476 30350450#0 30350450#1 30350450#2 4006702#0 31255203#0 -31241851#2 -31241851#1 -31241851#0 -31241816#1 -31241816#0 31241855#1"/>
    </vehicle>
    <vehicle id="Area Flow 38-32" type="Default" depart="32.00" departLane="best" departPos="random_free" departSpeed="max" color="84,218,248">
        <route edges="-4006705#2 -4006705#1 4006703#1 28269598 -4006702#2 -4006702#1 -4006702#0 4319352#1 44069041#0 44069041#1 4400949 31982182#0 4047241"/>
    </vehicle>
    <vehicle id="Area Flow 40-133" type="Default" depart="32.00" departLane="best" departPos="random_free" departSpeed="max" color="38,177,20">
        <route edges="-31353573#1 -31353573#0 4686970#0 4686970#1 122161381 30350448 8364476 30350450#0 30350450#1 30350450#2 -3013106#2 3013106#2"/>
    </vehicle>
    <vehicle id="Area Flow 40-30" type="Default" depart="32.00" departLane="best" departPos="random_free" departSpeed="max" color="38,177,20">
        <route edges="29900564#1 -29900564#1 -8402998#2 -8402998#1 -8402997 32270595 33174302#0 33174302#1 4686970#0 4686970#1 122161381 30350448 8364476 30350450#0 -3998645#2 -3998645#1 -3998645#0"/>
    </vehicle>
    <vehicle id="Area Flow 38-175" type="Default" depart="33.00" departLane="best" departPos="random_free" departSpeed="max" color="84,218,248">
        <route edges="4006703#0 4006703#1 28269598 -4006702#2 -4006702#1 -4006702#0 4319352#1 44069041#0 44069041#1 4400949 31982182#0 31982182#1"/>
    </vehicle>
    <vehicle id="Area Flow 38-227" type="Default" depart="33.00" departLane="best" departPos="random_free" departSpeed="max" color="84,218,248">
        <route edges="4006705#0 4006703#1 28269598 -4006702#2 -4006702#1 -4006702#0 4319352#1 44069041#0 44069041#1 4400949 31982182#0 4047241 4797872 4797871 4006668 -4006668"/>
    </vehicle>
    <vehicle id="Area Flow 38-37" type="Default" depart="34.00" departLane="best" departPos="random_free" departSpeed="max" color="84,218,248">
        <route edges="4006705#1 -4006705#1 4006703#1 28269598 -4006702#2 -4006702#1 -4006702#0 4319352#1 44069041#0 44069041#1 4400949 31982182#0 4047241 4797872"/>
    </vehicle>
    <vehicle id="Area Flow 40-235" type="Default" depart="34.00" departLane="best" departPos="random_free" departSpeed="max" color="38,177,20">
        <route edges="-4006693#2 -4006693#1 -23605595 -8403007 -29900564#1 -8402998#2 -8402998#1 -8402997 32270595 33174302#0 33174302#1 4686970#0 4686970#1 122161381 30350448 8364476 30350450#0 30350450#1 -3998643#2 3998615#2"/>
    </vehicle>
    <vehicle id="Area Flow 38-92" type="Default" depart="36.00" departLane="best" departPos="random_free" departSpeed="max" color="84,218,248">
        <route edges="-4006703#0 4006703#0 4006703#1 28269598 -4006702#2 -4006702#1 -4006702#0 4319352#1 44069041#0 44069041#1 4400949 31982182#0 4047241 4797872 4797871 4006668 23339459 30405358#1"/>
    </vehicle>
    <vehicle id="Area Flow 40-242" type="Default" depart="36.00" departLane="best" departPos="random_free" departSpeed="max" color="38,177,20">
        <route edges="-29900564#1 -8402998#2 -8402998#1 -8402997 32270595 33174302#0 33174302#1 4686970#0 4686970#1 122161381 30350448 8364476 30350450#0 -3998645#2 -3998615#3 4099270#1"/>
    </vehicle>
    <vehicle id="Area Flow 40-188" type="Default" depart="38.00" departLane="best" departPos="random_free" departSpeed="max" color="38,177,20">
        <route edges="4006694 4006693#4 4006690 29900565#0 29900565#1 29900565#2 29900565#3 33174302#0 33174302#1 4686970#0 25472257 -30357194 3998612#0 3998612#1 3998612#2 -3998612#2"/>
    </vehicle>
    <vehicle id="Area Flow 40-136" type="Default" depart="39.00" departLane="best" departPos="random_free" departSpeed="max" color="38,177,20">
        <route edges="-4006674#0 4006674#0 4006674#1 4006674#2 4006674#3 4006674#4 8403001 29900561#0 29900561#1 32270595 33174302#0 33174302#1 4686970#0 25472257 -30357194 3998612#0 3998612#1 3998612#2 3013109"/>
    </vehicle>
    <vehicle id="Area Flow 38-288" type="Default" depart="40.00" departLane="best" departPos="random_free" departSpeed="max" color="84,218,248">
        <route edges="-31720632#1 -31720632#0 -4006705#2 -4006705#1 4006703#1 28269598 -4006702#2 -4006702#1 -4006702#0 4319352#1 44069041#0 44069041#1 4400949 31982182#0 4047241 4797872 4797871 4006668 23339459"/>
    </vehicle>
    <vehicle id="Area Flow 38-117" type="Default" depart="41.00" departLane="best" departPos="random_free" departSpeed="max" color="84,218,248">
        <route edges="-4006705#2 -4006705#1 4006703#1 28269598 -4006702#2 -4006702#1 -4006702#0 4319352#1 44069041#0 44069041#1 4400949 31982182#0 4047241 4797872 4797871 4006668 23339459"/>
    </vehicle>
    <vehicle id="Area Flow 40-66" type="Default" depart="41.00" departLane="best" departPos="random_free" departSpeed="max" color="38,177,20">
        <route edges="29900564#3 -29900564#3 -29900564#2 -29900564#1 -8402998#2 -8402998#1 -8402997 32270595 33174302#0 33174302#1 4686970#0 4686970#1 122161381 30350448 8364476 30350450#0 30350450#1 30350450#2 -3013106#2"/>
    </vehicle>
    <vehicle id="Area Flow 38-163" type="Default" depart="43.00" departLane="best" departPos="random_free" departSpeed="max" color="84,218,248">
        <route edges="4006705#0 4006703#1 28269598 -4006702#2 -4006702#1 -4006702#0 4319352#1 44069041#0 44069041#1 4400949 31982182#0 4047241 4797872 4797871 4006668 23339459"/>
    </vehicle>
    <vehicle id="Area Flow 38-21" type="Default" depart="43.00" departLane="best" departPos="random_free" departSpeed="max" color="84,218,248">
        <route edges="-31720632#0 -4006705#2 -4006705#1 4006703#1 28269598 -4006702#2 -4006702#1 -4006702#0 4319352#1 44069041#0 44069041#1 4400949 31982182#0 4047241 4797872 4797871 4006668 126606716 113939242#0 5445204#1 5445204#2 5445204#3 -23570844#1"/>
    </vehicle>
    <vehicle id="Area Flow 38-170" type="Default" depart="44.00" departLane="best" departPos="random_free" departSpeed="max" color="84,218,248">
        <route edges="28269598 -4006702#2 -4006702#1 -4006702#0 4319352#1 44069041#0 44069041#1 4400949 31982182#0 4047241"/>
    </vehicle>
    <vehicle id="Area Flow 38-33" type="Default" depart="45.00" departLane="best" departPos="random_free" departSpeed="max" color="84,218,248">
        <route edges="4006705#0 4006703#1 28269598 -4006702#2 -4006702#1 -4006702#0 4319352#1 44069041#0 44069041#1 4400949 31982182#0 4047241 4797872 4797871 -15259223"/>
    </vehicle>
    <vehicle id="Area Flow 38-110" type="Default" depart="46.00" departLane="best" departPos="random_free" departSpeed="max" color="84,218,248">
        <route edges="-4006703#1 4006703#1 28269598 -4006702#2 -4006702#1 -4006702#0 4319352#1 44069041#0 44069041#1 4400949 31982182#0 4047241 4797872 4797871 4006668 126606716"/>
    </vehicle>
    <vehicle id="Area Flow 40-14" type="Default" depart="46.00" departLane="best" departPos="random_free" departSpeed="max" color="38,177,20">
        <route edges="29900565#1 29900565#2 29900565#3 33174302#0 33174302#1 4686970#0 25472257 -30357194 3998612#0 3998612#1 3998612#2 3013106#0"/>
    </vehicle>
    <vehicle id="Area Flow 40-213" type="Default" depart="46.00" departLane="best" departPos="random_free" departSpeed="max" color="38,177,20">
        <route edges="-4006688#2 4006688#2 4006688#3 4006688#4 29900561#0 29900561#1 32270595 33174302#0 33174302#1 4686970#0 4686970#1 122161381 30350448 8364476 30350450#0 30350450#1 -3998643#2 -3998615#1 -3998615#0"/>
    </vehicle>
    <vehicle id="Area Flow 40-121" type="Default" depart="47.00" departLane="best" departPos="random_free" departSpeed="max" color="38,177,20">
        <route edges="-4900741 4900741 35842306#0 35842306#1 4047446#0 4047446#1 5931612 30350450#0 30350450#1 30350450#2 4006702#0 31255203#0 -31241851#2 -31241853#2 -31241853#1 -31241853#0 31241853#0"/>
    </vehicle>
    <vehicle id="Area Flow 38-38" type="Default" depart="51.00" departLane="best" departPos="random_free" departSpeed="max" color="84,218,248">
        <route edges="31720633 -31720633 -31720632#0 -4006705#2 -4006705#1 4006703#1 28269598 -4006702#2 -4006702#1 -4006702#0 4319352#1 44069041#0 44069041#1 4400949 31982182#0 4047241 4797872 4797871 4006668 126606716"/>
    </vehicle>
    <vehicle id="Area Flow 38-281" type="Default" depart="52.00" departLane="best" departPos="random_free" departSpeed="max" color="84,218,248">
        <route edges="31720633 -31720633 -31720632#0 -4006705#2 -4006705#1 4006703#1 28269598 -4006702#2 -4006702#1 -4006702#0 4319352#1 44069041#0 44069041#1 4400949 31982182#0 4047241 4797872 4797871 4006668 23339459"/>
    </vehicle>
    <vehicle id="Area Flow 40-27" type="Default" depart="52.00" departLane="best" departPos="random_free" departSpeed="max" color="38,177,20">
        <route edges="-29900565#3 29900565#3 33174302#0 33174302#1 4686970#0 4686970#1 122161381 30350448 8364476 30350450#0 30350450#1 30350450#2 -3013106#2"/>
    </vehicle>
    <vehicle id="Area Flow 40-33" type="Default" depart="52.00" departLane="best" departPos="random_free" departSpeed="max" color="38,177,20">
        <route edges="-4006674#3 4006674#3 4006674#4 8403001 29900561#0 29900561#1 32270595 33174302#0 33174302#1 4686970#0 4686970#1 122161381 30350448 8364476 30350450#0 30350450#1 -3998643#2"/>
    </vehicle>
    <vehicle id="Area Flow 38-284" type="Default" depart="54.00" departLane="best" departPos="random_free" departSpeed="max" color="84,218,248">
        <route edges="-25210699 25210699 -4006705#1 4006703#1 28269598 -4006702#2 -4006702#1 -4006702#0 4319352#1 44069041#0 44069041#1 4400949 31982182#0 4047241 4797872 4797871 -15259223"/>
    </vehicle>
    <vehicle id="Area Flow 38-94" type="Default" depart="54.00" departLane="best" departPos="random_free" departSpeed="max" color="84,218,248">
        <route edges="31720632#1 -31720632#1 -31720632#0 -4006705#2 -4006705#1 4006703#1 28269598 -4006702#2 -4006702#1 -4006702#0 4319352#1 44069041#0 44069041#1 4400949 31982182#0 4047241 4797872 4797871 -15259223"/>
    </vehicle>
    <vehicle id="Area Flow 40-71" type="Default" depart="55.00" departLane="best" departPos="random_free" departSpeed="max" color="38,177,20">
        <route edges="4006684 32302591#3 32302591#4 32302591#5 33174302#0 33174302#1 4686970#0 25472257 -30357194 30357194"/>
    </vehicle>
    <vehicle id="Area Flow 38-199" type="Default" depart="59.00" departLane="best" departPos="random_free" departSpeed="max" color="84,218,248">
        <route edges="-28269598 28269598 -4006702#2 -4006702#1 -4006702#0 4319352#1 44069041#0 44069041#1 4400949 31982182#0 4047241 4797872 4797871 4006668 23339459 30405358#1"/>
    </vehicle>
    <vehicle id="Area Flow 38-24" type="Default" depart="59.00" departLane="best" departPos="random_free" departSpeed="max" color="84,218,248">
        <route edges="-4006703#1 4006703#1 28269598 -4006702#2 -4006702#1 -4006702#0 4319352#1 44069041#0 44069041#1 4400949 31982182#0 4047241 4797872 4797871 4006668 -4006668"/>
    </vehicle>
    <vehicle id="Area Flow 38-177" type="Default" depart="60.00" departLane="best" departPos="random_free" departSpeed="max" color="84,218,248">
        <route edges="4006703#0 4006703#1 28269598 -4006702#2 -4006702#1 -4006702#0 4319352#1 44069041#0 44069041#1 4400949 31982182#0 31982182#1"/>
    </vehicle>
    <vehicle id="Area Flow 40-169" type="Default" depart="60.00" departLane="best" departPos="random_free" departSpeed="max" color="38,177,20">
        <route edges="85355911#0 85355911#1 30405356 5931612 30350450#0 30350450#1 -3998643#2 3998615#2"/>
    </vehicle>
    <vehicle id="Area Flow 38-87" type="Default" depart="61.00" departLane="best" departPos="random_free" departSpeed="max" color="84,218,248">
        <route edges="-4006703#1 4006703#1 28269598 -4006702#2 -4006702#1 -4006702#0 4319352#1 44069041#0 44069041#1 4400949 31982182#0 4047241 4797872 4797871 4006668 23339459 30405358#1"/>
    </vehicle>
    <vehicle id="Area Flow 40-15" type="Default" depart="61.00" departLane="best" departPos="random_free" departSpeed="max" color="38,177,20">
        <route edges="4006689 29900565#2 29900565#3 33174302#0 33174302#1 4686970#0 4686970#1 122161381 30350448 8364476 30350450#0 -3998645#2 -3998645#1"/>
    </vehicle>
    <vehicle id="Area Flow 40-223" type="Default" depart="61.00" departLane="best" departPos="random_free" departSpeed="max" color="38,177,20">
        <route edges="-3998613#2 -3998613#1 -3998613#0 3998612#0 -4006725#1 4006725#1"/>
    </vehicle>
    <vehicle id="Area Flow 38-249" type="Default" depart="63.00" departLane="best" departPos="random_free" departSpeed="max" color="84,218,248">
        <route edges="4006703#0 4006703#1 28269598 -4006702#2 -4006702#1 -4006702#0 4319352#1 44069041#0 44069041#1 4400949 31982182#0 4047241 4797872 4797871 4006668 23339459"/>
    </vehicle>
    <vehicle id="Area Flow 40-80" type="Default" depart="63.00" departLane="best" departPos="random_free" departSpeed="max" color="38,177,20">
        <route edges="25472257 -30357194 3998612#0 3998612#1 3998612#2 3013106#0"/>
    </vehicle>
    <vehicle id="Area Flow 40-218" type="Default" depart="64.00" departLane="best" departPos="random_free" departSpeed="max" color="38,177,20">
        <route edges="-32270593 4006674#0 4006674#1 4006674#2 4006674#3 4006674#4 8403001 29900561#0 29900561#1 32270595 33174302#0 33174302#1 4686970#0 4686970#1 122161381 30350448 8364476 30350450#0 30350450#1 30350450#2 4006702#0 31255203#0 -31241851#2 -31241851#1 -31241851#0 -31241816#1"/>
    </vehicle>
    <vehicle id="Area Flow 40-88" type="Default" depart="66.00" departLane="best" departPos="random_free" departSpeed="max" color="38,177,20">
        <route edges="-4006683 32302591#2 32302591#3 32302591#4 32302591#5 33174302#0 33174302#1 4686970#0 4686970#1 122161381 30350448 8364476 30350450#0 -3998645#2 -3998645#1 -4006726#2 -4006726#1 -3998643#0"/>
    </vehicle>
    <vehicle id="Area Flow 38-155" type="Default" depart="68.00" departLane="best" departPos="random_free" departSpeed="max" color="84,218,248">
        <route edges="-31720632#1 -31720632#0 -4006705#2 -4006705#1 4006703#1 28269598 -4006702#2 -4006702#1 -4006702#0 4319352#1 44069041#0 44069041#1 4400949 31982182#0 4047241 4797872 4797871 4006668 126606716 113939242#0 5445204#1 5445204#2 5445204#3 -23570844#1"/>
    </vehicle>
    <vehicle id="Area Flow 40-115" type="Default" depart="70.00" departLane="best" departPos="random_free" departSpeed="max" color="38,177,20">
        <route edges="-10425130 4006688#2 4006688#3 4006688#4 29900561#0 29900561#1 32270595 33174302#0 33174302#1 4686970#0 4686970#1 122161381 30350448 8364476 30350450#0 -3998645#2 -3998615#3 3998615#3"/>
    </vehicle>
    <vehicle id="Area Flow 40-185" type="Default" depart="71.00" departLane="best" departPos="random_free" departSpeed="max" color="38,177,20">
        <route edges="10425128#1 -29900564#3 -29900564#2 -29900564#1 -8402998#2 -8402998#1 -8402997 32270595 33174302#0 33174302#1 4686970#0 25472257 -30357194 3998613#0"/>
    </vehicle>
    <vehicle id="Area Flow 40-32" type="Default" depart="74.00" departLane="best" departPos="random_free" departSpeed="max" color="38,177,20">
        <route edges="10419402 -4006693#1 -23605595 -8403007 -29900564#1 -8402998#2 -8402998#1 -8402997 32270595 33174302#0 33174302#1 4686970#0 4686970#1 122161381 30350448 8364476 30350450#0 -3998645#2 -3998645#1 -3998645#0"/>
    </vehicle>
    <vehicle id="Area Flow 40-68" type="Default" depart="76.00" departLane="best" departPos="random_free" departSpeed="max" color="38,177,20">
        <route edges="4006676 -4006676 32302591#4 32302591#5 33174302#0 33174302#1 4686970#0 4686970#1 122161381 30350448 8364476 30350450#0 30350450#1 -3998643#2"/>
    </vehicle>
    <vehicle id="Area Flow 38-113" type="Default" depart="77.00" departLane="best" departPos="random_free" departSpeed="max" color="84,218,248">
        <route edges="4006705#2 -4006705#2 -4006705#1 4006703#1 28269598 -4006702#2 -4006702#1 -4006702#0 4319352#1 44069041#0 44069041#1 4400949 31982182#0 4047241"/>
    </vehicle>
    <vehicle id="Area Flow 40-201" type="Default" depart="77.00" departLane="best" departPos="random_free" departSpeed="max" color="38,177,20">
        <route edges="4006693#0 -23605595 -8403007 -29900564#1 -8402998#2 -8402998#1 -8402997 32270595 33174302#0 33174302#1 4686970#0 25472257 -30357194 3998612#0"/>
    </vehicle>
    <vehicle id="Area Flow 40-91" type="Default" depart="77.00" departLane="best" departPos="random_free" departSpeed="max" color="38,177,20">
        <route edges="-8402998#0 29900565#3 33174302#0 33174302#1 4686970#0 4686970#1 122161381 30350448 8364476 30350450#0 30350450#1 30350450#2 -3013106#2 -3013106#1 -3013107"/>
    </vehicle>
    <vehicle id="Area Flow 38-160" type="Default" depart="78.00" departLane="best" departPos="random_free" departSpeed="max" color="84,218,248">
        <route edges="-4006705#0 4006705#0 4006703#1 28269598 -4006702#2 -4006702#1 -4006702#0 4319352#1 44069041#0 44069041#1 4400949 31982182#0 4047241 4797872 4797871"/>
    </vehicle>
    <vehicle id="Area Flow 38-57" type="Default" depart="79.00" departLane="best" departPos="random_free" departSpeed="max" color="84,218,248">
        <route edges="4006705#2 -4006705#2 -4006705#1 4006703#1 28269598 -4006702#2 -4006702#1 -4006702#0 4319352#1 44069041#0 44069041#1 4400949 31982182#0 4047241 4797872 4797871 4006668 126606716"/>
    </vehicle>
    <vehicle id="Area Flow 40-117" type="Default" depart="79.00" departLane="best" departPos="random_free" departSpeed="max" color="38,177,20">
        <route edges="4006693#2 10425128#0 10425128#1 -29900564#3 -29900564#2 -29900564#1 -8402998#2 -8402998#1 -8402997 32270595 33174302#0 33174302#1 4686970#0 4686970#1 122161381 30350448 8364476 30350450#0 30350450#1"/>
    </vehicle>
    <vehicle id="Area Flow 40-89" type="Default" depart="79.00" departLane="best" departPos="random_free" departSpeed="max" color="38,177,20">
        <route edges="31353573#1 -3998613#2 -3998613#1 -3998613#0 3998612#0 3998612#1 -3998612#1"/>
    </vehicle>
    <vehicle id="Area Flow 38-40" type="Default" depart="81.00" departLane="best" departPos="random_free" departSpeed="max" color="84,218,248">
        <route edges="-31720633 -31720632#0 -4006705#2 -4006705#1 4006703#1 28269598 -4006702#2 -4006702#1 -4006702#0 4319352#1 44069041#0 44069041#1 4400949 31982182#0 4047241 4797872 4797871 4006668 -4006668"/>
    </vehicle>
    <vehicle id="Area Flow 38-116" type="Default" depart="82.00" departLane="best" departPos="random_free" departSpeed="max" color="84,218,248">
        <route edges="-31720632#0 -4006705#2 -4006705#1 4006703#1 28269598 -4006702#2 -4006702#1 -4006702#0 4319352#1 44069041#0 44069041#1 4400949 31982182#0 4047241"/>
    </vehicle>
    <vehicle id="Area Flow 40-76" type="Default" depart="82.00" departLane="best" departPos="random_free" departSpeed="max" color="38,177,20">
        <route edges="35842306#1 4047446#0 4047446#1 25472079 30405352 19796637 122161390 -30357194 3998612#0 -4006725#1 -4872369 4006724#2"/>
    </vehicle>
    <vehicle id="Area Flow 38-53" type="Default" depart="83.00" departLane="best" departPos="random_free" departSpeed="max" color="84,218,248">
        <route edges="-4006705#0 4006705#0 4006703#1 28269598 -4006702#2 -4006702#1 -4006702#0 4319352#1 44069041#0 44069041#1 4400949 31982182#0 4047241 4797872 4797871 4006668 23339459"/>
    </vehicle>
    <vehicle id="Area Flow 40-31" type="Default" depart="83.00" departLane="best" departPos="random_free" departSpeed="max" color="38,177,20">